<routes>
<vType accel="13.943350" decel="5.670007" id="model0" length="7.0" color="1,0,0" maxSpeed="26.235337" sigma="0.0"/>
<vType accel="10.597836" decel="4.461824" id="model1" length="7.0" color="1,0,0" maxSpeed="28.491910" sigma="0.0"/>
<vType accel="13.077116" decel="4.589340" id="model2" length="7.0" color="1,0,0" maxSpeed="26.476172" sigma="0.0"/>
<vType accel="12.929414" decel="5.447566" id="model3" length="7.0" color="1,0,0" maxSpeed="26.024171" sigma="0.0"/>
<vType accel="14.487740" decel="5.184091" id="model4" length="7.0" color="1,0,0" maxSpeed="26.471377" sigma="0.0"/>
<vType accel="14.822818" decel="3.978365" id="model5" length="7.0" color="1,0,0" maxSpeed="29.482849" sigma="0.0"/>
<vType accel="12.109422" decel="5.519503" id="model6" length="7.0" color="1,0,0" maxSpeed="27.797075" sigma="0.0"/>
<vType accel="12.404875" decel="3.627319" id="model7" length="7.0" color="1,0,0" maxSpeed="29.446206" sigma="0.0"/>
<vType accel="11.199546" decel="5.090334" id="model8" length="7.0" color="1,0,0" maxSpeed="26.938077" sigma="0.0"/>
<vType accel="14.004147" decel="4.396465" id="model9" length="7.0" color="1,0,0" maxSpeed="28.154239" sigma="0.0"/>
<vType accel="12.490111" decel="5.010116" id="model10" length="7.0" color="1,0,0" maxSpeed="27.213132" sigma="0.0"/>
<vType accel="10.881437" decel="4.751578" id="model11" length="7.0" color="1,0,0" maxSpeed="28.379248" sigma="0.0"/>
<vType accel="13.487079" decel="4.799949" id="model12" length="7.0" color="1,0,0" maxSpeed="27.908729" sigma="0.0"/>
<vType accel="10.459775" decel="4.225251" id="model13" length="7.0" color="1,0,0" maxSpeed="26.479640" sigma="0.0"/>
<vType accel="13.464383" decel="3.575734" id="model14" length="7.0" color="1,0,0" maxSpeed="28.792585" sigma="0.0"/>
<vType accel="11.925122" decel="4.788728" id="model15" length="7.0" color="1,0,0" maxSpeed="26.121156" sigma="0.0"/>
<vType accel="14.751650" decel="4.646664" id="model16" length="7.0" color="1,0,0" maxSpeed="29.659892" sigma="0.0"/>
<vType accel="10.742035" decel="5.218431" id="model17" length="7.0" color="1,0,0" maxSpeed="29.355160" sigma="0.0"/>
<vType accel="14.619723" decel="5.467588" id="model18" length="7.0" color="1,0,0" maxSpeed="26.818717" sigma="0.0"/>
<vType accel="10.938393" decel="4.940986" id="model19" length="7.0" color="1,0,0" maxSpeed="29.007695" sigma="0.0"/>
<vType accel="10.358032" decel="5.371935" id="model20" length="7.0" color="1,0,0" maxSpeed="29.228999" sigma="0.0"/>
<vType accel="10.716085" decel="5.590845" id="model21" length="7.0" color="1,0,0" maxSpeed="27.137520" sigma="0.0"/>
<vType accel="12.620201" decel="5.928851" id="model22" length="7.0" color="1,0,0" maxSpeed="27.276324" sigma="0.0"/>
<vType accel="13.922397" decel="5.535661" id="model23" length="7.0" color="1,0,0" maxSpeed="29.817235" sigma="0.0"/>
<vType accel="10.890349" decel="3.639266" id="model24" length="7.0" color="1,0,0" maxSpeed="28.139479" sigma="0.0"/>
<vType accel="11.960545" decel="5.255048" id="model25" length="7.0" color="1,0,0" maxSpeed="29.398271" sigma="0.0"/>
<vType accel="11.094872" decel="4.598513" id="model26" length="7.0" color="1,0,0" maxSpeed="26.917776" sigma="0.0"/>
<vType accel="14.581993" decel="5.400678" id="model27" length="7.0" color="1,0,0" maxSpeed="28.240393" sigma="0.0"/>
<vType accel="11.902620" decel="4.048410" id="model28" length="7.0" color="1,0,0" maxSpeed="28.207323" sigma="0.0"/>
<vType accel="13.493090" decel="4.710744" id="model29" length="7.0" color="1,0,0" maxSpeed="26.263382" sigma="0.0"/>
<vType accel="14.925484" decel="4.198553" id="model30" length="7.0" color="1,0,0" maxSpeed="27.797381" sigma="0.0"/>
<vType accel="12.402542" decel="5.469294" id="model31" length="7.0" color="1,0,0" maxSpeed="28.341646" sigma="0.0"/>
<vType accel="11.355440" decel="3.596937" id="model32" length="7.0" color="1,0,0" maxSpeed="28.149426" sigma="0.0"/>
<vType accel="11.923374" decel="3.524723" id="model33" length="7.0" color="1,0,0" maxSpeed="28.142369" sigma="0.0"/>
<vType accel="14.988652" decel="5.093912" id="model34" length="7.0" color="1,0,0" maxSpeed="28.050409" sigma="0.0"/>
<vType accel="11.247560" decel="3.774502" id="model35" length="7.0" color="1,0,0" maxSpeed="28.847699" sigma="0.0"/>
<vType accel="10.137018" decel="4.726246" id="model36" length="7.0" color="1,0,0" maxSpeed="28.294772" sigma="0.0"/>
<vType accel="13.410074" decel="5.809016" id="model37" length="7.0" color="1,0,0" maxSpeed="29.702853" sigma="0.0"/>
<vType accel="10.883793" decel="5.119801" id="model38" length="7.0" color="1,0,0" maxSpeed="26.545106" sigma="0.0"/>
<vType accel="11.522830" decel="3.519228" id="model39" length="7.0" color="1,0,0" maxSpeed="28.385317" sigma="0.0"/>
<vType accel="11.380883" decel="4.559601" id="model40" length="7.0" color="1,0,0" maxSpeed="27.772579" sigma="0.0"/>
<vType accel="14.812652" decel="5.151429" id="model41" length="7.0" color="1,0,0" maxSpeed="26.108347" sigma="0.0"/>
<vType accel="11.390541" decel="5.552330" id="model42" length="7.0" color="1,0,0" maxSpeed="27.592500" sigma="0.0"/>
<vType accel="11.253853" decel="4.052895" id="model43" length="7.0" color="1,0,0" maxSpeed="26.389195" sigma="0.0"/>
<vType accel="13.559260" decel="3.645126" id="model44" length="7.0" color="1,0,0" maxSpeed="28.480734" sigma="0.0"/>
<vType accel="10.167366" decel="4.576850" id="model45" length="7.0" color="1,0,0" maxSpeed="26.788180" sigma="0.0"/>
<vType accel="11.062176" decel="5.206785" id="model46" length="7.0" color="1,0,0" maxSpeed="29.704521" sigma="0.0"/>
<vType accel="14.554053" decel="5.855162" id="model47" length="7.0" color="1,0,0" maxSpeed="26.462779" sigma="0.0"/>
<vType accel="11.537702" decel="5.799692" id="model48" length="7.0" color="1,0,0" maxSpeed="26.118592" sigma="0.0"/>
<vType accel="13.697269" decel="5.798628" id="model49" length="7.0" color="1,0,0" maxSpeed="28.772157" sigma="0.0"/>
<vType accel="10.319578" decel="4.375989" id="model50" length="7.0" color="1,0,0" maxSpeed="29.241107" sigma="0.0"/>
<vType accel="13.464972" decel="3.773056" id="model51" length="7.0" color="1,0,0" maxSpeed="27.482819" sigma="0.0"/>
<vType accel="13.698730" decel="3.685247" id="model52" length="7.0" color="1,0,0" maxSpeed="28.095662" sigma="0.0"/>
<vType accel="10.196980" decel="4.952731" id="model53" length="7.0" color="1,0,0" maxSpeed="26.257532" sigma="0.0"/>
<vType accel="10.198513" decel="4.994092" id="model54" length="7.0" color="1,0,0" maxSpeed="26.386204" sigma="0.0"/>
<vType accel="10.816620" decel="4.929559" id="model55" length="7.0" color="1,0,0" maxSpeed="27.559139" sigma="0.0"/>
<vType accel="12.798789" decel="5.952929" id="model56" length="7.0" color="1,0,0" maxSpeed="29.216067" sigma="0.0"/>
<vType accel="14.880319" decel="4.737297" id="model57" length="7.0" color="1,0,0" maxSpeed="27.632651" sigma="0.0"/>
<vType accel="12.276151" decel="5.439346" id="model58" length="7.0" color="1,0,0" maxSpeed="28.044920" sigma="0.0"/>
<vType accel="13.453008" decel="3.500244" id="model59" length="7.0" color="1,0,0" maxSpeed="28.940007" sigma="0.0"/>
<vType accel="12.015620" decel="3.741878" id="model60" length="7.0" color="1,0,0" maxSpeed="28.429821" sigma="0.0"/>
<vType accel="12.279395" decel="4.236457" id="model61" length="7.0" color="1,0,0" maxSpeed="29.505239" sigma="0.0"/>
<vType accel="14.053708" decel="4.539454" id="model62" length="7.0" color="1,0,0" maxSpeed="27.392074" sigma="0.0"/>
<vType accel="11.858313" decel="4.177693" id="model63" length="7.0" color="1,0,0" maxSpeed="27.019830" sigma="0.0"/>
<vType accel="10.663659" decel="5.053856" id="model64" length="7.0" color="1,0,0" maxSpeed="27.080335" sigma="0.0"/>
<vType accel="14.829677" decel="5.180372" id="model65" length="7.0" color="1,0,0" maxSpeed="27.220052" sigma="0.0"/>
<vType accel="13.154666" decel="4.126546" id="model66" length="7.0" color="1,0,0" maxSpeed="29.920765" sigma="0.0"/>
<vType accel="13.911608" decel="5.101084" id="model67" length="7.0" color="1,0,0" maxSpeed="28.888724" sigma="0.0"/>
<vType accel="10.197578" decel="3.960501" id="model68" length="7.0" color="1,0,0" maxSpeed="29.310928" sigma="0.0"/>
<vType accel="12.664307" decel="4.422089" id="model69" length="7.0" color="1,0,0" maxSpeed="27.867999" sigma="0.0"/>
<vType accel="11.755670" decel="4.995405" id="model70" length="7.0" color="1,0,0" maxSpeed="29.680934" sigma="0.0"/>
<vType accel="13.053991" decel="4.935934" id="model71" length="7.0" color="1,0,0" maxSpeed="27.933259" sigma="0.0"/>
<vType accel="10.836154" decel="4.241440" id="model72" length="7.0" color="1,0,0" maxSpeed="28.144621" sigma="0.0"/>
<vType accel="14.912892" decel="4.795763" id="model73" length="7.0" color="1,0,0" maxSpeed="28.389354" sigma="0.0"/>
<vType accel="11.535814" decel="4.871910" id="model74" length="7.0" color="1,0,0" maxSpeed="28.051880" sigma="0.0"/>
<vType accel="10.021939" decel="5.255667" id="model75" length="7.0" color="1,0,0" maxSpeed="29.618611" sigma="0.0"/>
<vType accel="10.365629" decel="5.380507" id="model76" length="7.0" color="1,0,0" maxSpeed="29.697973" sigma="0.0"/>
<vType accel="14.006433" decel="4.847982" id="model77" length="7.0" color="1,0,0" maxSpeed="29.142932" sigma="0.0"/>
<vType accel="12.197053" decel="4.853238" id="model78" length="7.0" color="1,0,0" maxSpeed="29.890968" sigma="0.0"/>
<vType accel="14.062458" decel="5.593590" id="model79" length="7.0" color="1,0,0" maxSpeed="26.912943" sigma="0.0"/>
<vType accel="12.528857" decel="3.870258" id="model80" length="7.0" color="1,0,0" maxSpeed="27.052663" sigma="0.0"/>
<vType accel="12.667359" decel="3.678438" id="model81" length="7.0" color="1,0,0" maxSpeed="27.237484" sigma="0.0"/>
<vType accel="14.803346" decel="4.032563" id="model82" length="7.0" color="1,0,0" maxSpeed="28.057786" sigma="0.0"/>
<vType accel="14.913094" decel="4.610880" id="model83" length="7.0" color="1,0,0" maxSpeed="28.369712" sigma="0.0"/>
<vType accel="13.530850" decel="3.942720" id="model84" length="7.0" color="1,0,0" maxSpeed="27.760656" sigma="0.0"/>
<vType accel="12.169648" decel="5.210393" id="model85" length="7.0" color="1,0,0" maxSpeed="29.323105" sigma="0.0"/>
<vType accel="14.703536" decel="5.721698" id="model86" length="7.0" color="1,0,0" maxSpeed="29.027102" sigma="0.0"/>
<vType accel="13.940048" decel="5.107645" id="model87" length="7.0" color="1,0,0" maxSpeed="29.580657" sigma="0.0"/>
<vType accel="14.170865" decel="5.284291" id="model88" length="7.0" color="1,0,0" maxSpeed="29.851156" sigma="0.0"/>
<vType accel="12.422604" decel="4.946445" id="model89" length="7.0" color="1,0,0" maxSpeed="26.303549" sigma="0.0"/>
<vType accel="13.837160" decel="3.624062" id="model90" length="7.0" color="1,0,0" maxSpeed="28.831803" sigma="0.0"/>
<vType accel="13.225338" decel="5.230247" id="model91" length="7.0" color="1,0,0" maxSpeed="28.437494" sigma="0.0"/>
<vType accel="11.880126" decel="5.999453" id="model92" length="7.0" color="1,0,0" maxSpeed="27.624606" sigma="0.0"/>
<vType accel="12.281585" decel="5.514000" id="model93" length="7.0" color="1,0,0" maxSpeed="26.457964" sigma="0.0"/>
<vType accel="14.518832" decel="5.752269" id="model94" length="7.0" color="1,0,0" maxSpeed="26.987154" sigma="0.0"/>
<vType accel="11.826793" decel="3.891745" id="model95" length="7.0" color="1,0,0" maxSpeed="29.206205" sigma="0.0"/>
<vType accel="14.078158" decel="4.790167" id="model96" length="7.0" color="1,0,0" maxSpeed="29.945393" sigma="0.0"/>
<vType accel="14.095417" decel="4.007026" id="model97" length="7.0" color="1,0,0" maxSpeed="27.494016" sigma="0.0"/>
<vType accel="12.343098" decel="4.226837" id="model98" length="7.0" color="1,0,0" maxSpeed="29.510192" sigma="0.0"/>
<vType accel="13.468640" decel="5.179171" id="model99" length="7.0" color="1,0,0" maxSpeed="28.885316" sigma="0.0"/>
<vType accel="10.612325" decel="3.963719" id="model100" length="7.0" color="1,0,0" maxSpeed="26.721929" sigma="0.0"/>
<vType accel="14.238115" decel="4.988109" id="model101" length="7.0" color="1,0,0" maxSpeed="28.956456" sigma="0.0"/>
<vType accel="11.709345" decel="5.835643" id="model102" length="7.0" color="1,0,0" maxSpeed="29.103964" sigma="0.0"/>
<vType accel="10.760185" decel="5.596625" id="model103" length="7.0" color="1,0,0" maxSpeed="26.744229" sigma="0.0"/>
<vType accel="11.188651" decel="3.619138" id="model104" length="7.0" color="1,0,0" maxSpeed="26.268431" sigma="0.0"/>
<vType accel="12.728880" decel="3.750965" id="model105" length="7.0" color="1,0,0" maxSpeed="27.626472" sigma="0.0"/>
<vType accel="13.617192" decel="5.131580" id="model106" length="7.0" color="1,0,0" maxSpeed="27.359395" sigma="0.0"/>
<vType accel="10.329764" decel="4.263758" id="model107" length="7.0" color="1,0,0" maxSpeed="28.625185" sigma="0.0"/>
<vType accel="12.850656" decel="5.369183" id="model108" length="7.0" color="1,0,0" maxSpeed="29.554141" sigma="0.0"/>
<vType accel="13.657737" decel="5.192541" id="model109" length="7.0" color="1,0,0" maxSpeed="26.905170" sigma="0.0"/>
<vType accel="13.824185" decel="5.207801" id="model110" length="7.0" color="1,0,0" maxSpeed="29.745696" sigma="0.0"/>
<vType accel="14.991624" decel="3.724164" id="model111" length="7.0" color="1,0,0" maxSpeed="26.025970" sigma="0.0"/>
<vType accel="10.768517" decel="5.315367" id="model112" length="7.0" color="1,0,0" maxSpeed="29.863087" sigma="0.0"/>
<vType accel="14.329243" decel="5.427792" id="model113" length="7.0" color="1,0,0" maxSpeed="27.901311" sigma="0.0"/>
<vType accel="13.083198" decel="3.662346" id="model114" length="7.0" color="1,0,0" maxSpeed="27.824343" sigma="0.0"/>
<vType accel="11.600303" decel="5.707279" id="model115" length="7.0" color="1,0,0" maxSpeed="27.380622" sigma="0.0"/>
<vType accel="11.947801" decel="5.787221" id="model116" length="7.0" color="1,0,0" maxSpeed="28.829548" sigma="0.0"/>
<vType accel="10.064179" decel="3.557965" id="model117" length="7.0" color="1,0,0" maxSpeed="27.966717" sigma="0.0"/>
<vType accel="12.287901" decel="3.538609" id="model118" length="7.0" color="1,0,0" maxSpeed="28.089284" sigma="0.0"/>
<vType accel="13.996406" decel="3.593207" id="model119" length="7.0" color="1,0,0" maxSpeed="29.551260" sigma="0.0"/>
<vType accel="14.003397" decel="3.698283" id="model120" length="7.0" color="1,0,0" maxSpeed="26.376408" sigma="0.0"/>
<vType accel="11.738542" decel="5.243736" id="model121" length="7.0" color="1,0,0" maxSpeed="26.379426" sigma="0.0"/>
<vType accel="12.759951" decel="4.278075" id="model122" length="7.0" color="1,0,0" maxSpeed="27.093208" sigma="0.0"/>
<vType accel="12.599212" decel="4.479208" id="model123" length="7.0" color="1,0,0" maxSpeed="28.410656" sigma="0.0"/>
<vType accel="12.485371" decel="4.742043" id="model124" length="7.0" color="1,0,0" maxSpeed="27.943336" sigma="0.0"/>
<vType accel="10.135665" decel="4.026712" id="model125" length="7.0" color="1,0,0" maxSpeed="28.855689" sigma="0.0"/>
<vType accel="12.627275" decel="4.900822" id="model126" length="7.0" color="1,0,0" maxSpeed="26.435242" sigma="0.0"/>
<vType accel="13.471944" decel="3.936407" id="model127" length="7.0" color="1,0,0" maxSpeed="27.230468" sigma="0.0"/>
<vType accel="10.110579" decel="5.321217" id="model128" length="7.0" color="1,0,0" maxSpeed="29.298227" sigma="0.0"/>
<vType accel="13.913579" decel="5.202120" id="model129" length="7.0" color="1,0,0" maxSpeed="28.471314" sigma="0.0"/>
<vType accel="11.563209" decel="4.181636" id="model130" length="7.0" color="1,0,0" maxSpeed="29.326726" sigma="0.0"/>
<vType accel="13.456049" decel="5.709470" id="model131" length="7.0" color="1,0,0" maxSpeed="27.274101" sigma="0.0"/>
<vType accel="10.003441" decel="4.785173" id="model132" length="7.0" color="1,0,0" maxSpeed="27.570411" sigma="0.0"/>
<vType accel="10.942557" decel="4.298586" id="model133" length="7.0" color="1,0,0" maxSpeed="26.499298" sigma="0.0"/>
<vType accel="14.748088" decel="5.462062" id="model134" length="7.0" color="1,0,0" maxSpeed="28.548075" sigma="0.0"/>
<vType accel="11.113240" decel="4.741248" id="model135" length="7.0" color="1,0,0" maxSpeed="28.029701" sigma="0.0"/>
<vType accel="14.416008" decel="4.503453" id="model136" length="7.0" color="1,0,0" maxSpeed="26.445186" sigma="0.0"/>
<vType accel="13.925944" decel="5.069131" id="model137" length="7.0" color="1,0,0" maxSpeed="28.604620" sigma="0.0"/>
<vType accel="12.032022" decel="4.269230" id="model138" length="7.0" color="1,0,0" maxSpeed="26.623795" sigma="0.0"/>
<vType accel="10.003106" decel="5.113197" id="model139" length="7.0" color="1,0,0" maxSpeed="26.789700" sigma="0.0"/>
<vType accel="10.592249" decel="5.624151" id="model140" length="7.0" color="1,0,0" maxSpeed="27.192067" sigma="0.0"/>
<vType accel="11.562879" decel="4.789492" id="model141" length="7.0" color="1,0,0" maxSpeed="26.394545" sigma="0.0"/>
<vType accel="10.097658" decel="4.553482" id="model142" length="7.0" color="1,0,0" maxSpeed="26.674311" sigma="0.0"/>
<vType accel="11.564552" decel="4.632696" id="model143" length="7.0" color="1,0,0" maxSpeed="26.377338" sigma="0.0"/>
<vType accel="10.496873" decel="3.533240" id="model144" length="7.0" color="1,0,0" maxSpeed="26.041151" sigma="0.0"/>
<vType accel="11.767326" decel="5.716371" id="model145" length="7.0" color="1,0,0" maxSpeed="26.204168" sigma="0.0"/>
<vType accel="12.095005" decel="5.163355" id="model146" length="7.0" color="1,0,0" maxSpeed="29.282147" sigma="0.0"/>
<vType accel="13.981710" decel="5.338844" id="model147" length="7.0" color="1,0,0" maxSpeed="26.136808" sigma="0.0"/>
<vType accel="13.765440" decel="4.319761" id="model148" length="7.0" color="1,0,0" maxSpeed="26.132268" sigma="0.0"/>
<vType accel="10.646454" decel="4.859701" id="model149" length="7.0" color="1,0,0" maxSpeed="27.410542" sigma="0.0"/>
<vType accel="13.381101" decel="5.717692" id="model150" length="7.0" color="1,0,0" maxSpeed="27.844663" sigma="0.0"/>
<vType accel="14.222746" decel="4.665971" id="model151" length="7.0" color="1,0,0" maxSpeed="27.683562" sigma="0.0"/>
<vType accel="14.634049" decel="5.547599" id="model152" length="7.0" color="1,0,0" maxSpeed="27.769994" sigma="0.0"/>
<vType accel="11.302910" decel="5.010401" id="model153" length="7.0" color="1,0,0" maxSpeed="27.548546" sigma="0.0"/>
<vType accel="10.076722" decel="5.078456" id="model154" length="7.0" color="1,0,0" maxSpeed="28.527458" sigma="0.0"/>
<vType accel="11.709044" decel="3.627625" id="model155" length="7.0" color="1,0,0" maxSpeed="29.357893" sigma="0.0"/>
<vType accel="11.894175" decel="3.776163" id="model156" length="7.0" color="1,0,0" maxSpeed="27.836203" sigma="0.0"/>
<vType accel="12.424901" decel="4.762063" id="model157" length="7.0" color="1,0,0" maxSpeed="27.605152" sigma="0.0"/>
<vType accel="14.156721" decel="4.911318" id="model158" length="7.0" color="1,0,0" maxSpeed="28.796967" sigma="0.0"/>
<vType accel="12.982339" decel="5.699007" id="model159" length="7.0" color="1,0,0" maxSpeed="27.709769" sigma="0.0"/>
<vType accel="12.133578" decel="3.860120" id="model160" length="7.0" color="1,0,0" maxSpeed="26.555609" sigma="0.0"/>
<vType accel="13.544434" decel="3.922709" id="model161" length="7.0" color="1,0,0" maxSpeed="26.181056" sigma="0.0"/>
<vType accel="11.223437" decel="4.827566" id="model162" length="7.0" color="1,0,0" maxSpeed="26.563042" sigma="0.0"/>
<vType accel="13.318118" decel="5.979058" id="model163" length="7.0" color="1,0,0" maxSpeed="28.151942" sigma="0.0"/>
<vType accel="14.652118" decel="4.001980" id="model164" length="7.0" color="1,0,0" maxSpeed="26.192283" sigma="0.0"/>
<vType accel="10.698235" decel="4.254591" id="model165" length="7.0" color="1,0,0" maxSpeed="26.031873" sigma="0.0"/>
<vType accel="11.637924" decel="5.360804" id="model166" length="7.0" color="1,0,0" maxSpeed="29.871284" sigma="0.0"/>
<vType accel="12.307280" decel="5.716318" id="model167" length="7.0" color="1,0,0" maxSpeed="27.537768" sigma="0.0"/>
<vType accel="11.135953" decel="5.395996" id="model168" length="7.0" color="1,0,0" maxSpeed="27.668185" sigma="0.0"/>
<vType accel="14.859363" decel="5.108697" id="model169" length="7.0" color="1,0,0" maxSpeed="26.054712" sigma="0.0"/>
<vType accel="13.472025" decel="5.593496" id="model170" length="7.0" color="1,0,0" maxSpeed="28.790392" sigma="0.0"/>
<vType accel="10.237898" decel="5.702438" id="model171" length="7.0" color="1,0,0" maxSpeed="27.261047" sigma="0.0"/>
<vType accel="12.949051" decel="3.774859" id="model172" length="7.0" color="1,0,0" maxSpeed="29.824587" sigma="0.0"/>
<vType accel="13.054416" decel="5.403996" id="model173" length="7.0" color="1,0,0" maxSpeed="29.124898" sigma="0.0"/>
<vType accel="10.193367" decel="4.398119" id="model174" length="7.0" color="1,0,0" maxSpeed="27.501187" sigma="0.0"/>
<vType accel="10.151900" decel="4.775166" id="model175" length="7.0" color="1,0,0" maxSpeed="27.812351" sigma="0.0"/>
<vType accel="12.353780" decel="5.679790" id="model176" length="7.0" color="1,0,0" maxSpeed="26.716584" sigma="0.0"/>
<vType accel="13.458534" decel="5.529302" id="model177" length="7.0" color="1,0,0" maxSpeed="29.522801" sigma="0.0"/>
<vType accel="10.830203" decel="4.308727" id="model178" length="7.0" color="1,0,0" maxSpeed="26.296790" sigma="0.0"/>
<vType accel="12.080773" decel="4.271980" id="model179" length="7.0" color="1,0,0" maxSpeed="27.977434" sigma="0.0"/>
<vType accel="11.703373" decel="5.811272" id="model180" length="7.0" color="1,0,0" maxSpeed="27.829715" sigma="0.0"/>
<vType accel="12.028757" decel="5.667242" id="model181" length="7.0" color="1,0,0" maxSpeed="27.926047" sigma="0.0"/>
<vType accel="11.460098" decel="5.066554" id="model182" length="7.0" color="1,0,0" maxSpeed="28.895869" sigma="0.0"/>
<vType accel="13.470511" decel="3.623234" id="model183" length="7.0" color="1,0,0" maxSpeed="26.016492" sigma="0.0"/>
<vType accel="11.988130" decel="5.842797" id="model184" length="7.0" color="1,0,0" maxSpeed="28.050125" sigma="0.0"/>
<vType accel="10.536899" decel="4.877235" id="model185" length="7.0" color="1,0,0" maxSpeed="28.883675" sigma="0.0"/>
<vType accel="13.557449" decel="4.074257" id="model186" length="7.0" color="1,0,0" maxSpeed="28.502456" sigma="0.0"/>
<vType accel="10.926089" decel="4.860363" id="model187" length="7.0" color="1,0,0" maxSpeed="28.743805" sigma="0.0"/>
<vType accel="10.169175" decel="3.943406" id="model188" length="7.0" color="1,0,0" maxSpeed="26.679466" sigma="0.0"/>
<vType accel="10.090726" decel="5.457100" id="model189" length="7.0" color="1,0,0" maxSpeed="26.704422" sigma="0.0"/>
<vType accel="13.619666" decel="4.348699" id="model190" length="7.0" color="1,0,0" maxSpeed="29.963554" sigma="0.0"/>
<vType accel="13.662317" decel="3.997929" id="model191" length="7.0" color="1,0,0" maxSpeed="27.457793" sigma="0.0"/>
<vType accel="13.352290" decel="3.875023" id="model192" length="7.0" color="1,0,0" maxSpeed="26.973800" sigma="0.0"/>
<vType accel="11.653478" decel="5.754368" id="model193" length="7.0" color="1,0,0" maxSpeed="28.707631" sigma="0.0"/>
<vType accel="14.425747" decel="5.966467" id="model194" length="7.0" color="1,0,0" maxSpeed="27.337583" sigma="0.0"/>
<vType accel="12.703443" decel="5.049644" id="model195" length="7.0" color="1,0,0" maxSpeed="28.424683" sigma="0.0"/>
<vType accel="10.548747" decel="4.019512" id="model196" length="7.0" color="1,0,0" maxSpeed="28.045620" sigma="0.0"/>
<vType accel="12.637054" decel="4.331065" id="model197" length="7.0" color="1,0,0" maxSpeed="29.992981" sigma="0.0"/>
<vType accel="10.028607" decel="5.931766" id="model198" length="7.0" color="1,0,0" maxSpeed="29.000224" sigma="0.0"/>
<vType accel="10.771991" decel="5.845441" id="model199" length="7.0" color="1,0,0" maxSpeed="26.662181" sigma="0.0"/>

        <route id="r0" edges="-46331812 31649598#0 31649598#1"/>
        <route id="r1" edges="-31581244#0 46331812"/>
<vehicle depart="20" departLane="0" id="veh0" route="r0" type="model116"/>
<vehicle depart="40" departLane="0" id="veh1" route="r0" type="model106"/>
<vehicle depart="60" departLane="0" id="veh2" route="r0" type="model103"/>
<vehicle depart="80" departLane="0" id="veh3" route="r0" type="model93"/>
<vehicle depart="100" departLane="0" id="veh4" route="r0" type="model144"/>
<vehicle depart="120" departLane="0" id="veh5" route="r0" type="model138"/>
<vehicle depart="140" departLane="0" id="veh6" route="r0" type="model85"/>
<vehicle depart="160" departLane="0" id="veh7" route="r0" type="model104"/>
<vehicle depart="180" departLane="0" id="veh8" route="r0" type="model89"/>
<vehicle depart="200" departLane="0" id="veh9" route="r0" type="model144"/>
<vehicle depart="220" departLane="0" id="veh10" route="r0" type="model2"/>
<vehicle depart="240" departLane="0" id="veh11" route="r0" type="model41"/>
<vehicle depart="260" departLane="0" id="veh12" route="r0" type="model2"/>
<vehicle depart="280" departLane="0" id="veh13" route="r0" type="model162"/>
<vehicle depart="300" departLane="0" id="veh14" route="r0" type="model160"/>
<vehicle depart="320" departLane="0" id="veh15" route="r0" type="model13"/>
<vehicle depart="340" departLane="0" id="veh16" route="r0" type="model79"/>
<vehicle depart="360" departLane="0" id="veh17" route="r0" type="model80"/>
<vehicle depart="380" departLane="0" id="veh18" route="r0" type="model84"/>
<vehicle depart="400" departLane="0" id="veh19" route="r0" type="model9"/>
</routes>
