<?xml version="1.0" encoding="UTF-8"?>

<!-- generated on Mon Jun 20 17:45:48 2016 by SUMO duarouter Version 0.25.0
<?xml version="1.0" encoding="UTF-8"?>

<configuration xmlns:xsi="http://www.w3.org/2001/XMLSchema-instance" xsi:noNamespaceSchemaLocation="http://sumo.dlr.de/xsd/duarouterConfiguration.xsd">

    <input>
        <net-file value="zorilor.net.xml"/>
        <trip-files value="trips.xml"/>
    </input>

    <output>
        <output-file value="trip_result.rou.xml"/>
    </output>

</configuration>
-->

<routes xmlns:xsi="http://www.w3.org/2001/XMLSchema-instance" xsi:noNamespaceSchemaLocation="http://sumo.dlr.de/xsd/routes_file.xsd">
    <vehicle id="0" depart="0.00">
        <route edges="-46331812 31649598#0 31649598#1"/>
    </vehicle>
    <vehicle id="1" depart="0.00">
        <route edges="-31581244#0 46331812"/>
    </vehicle>
    <vehicle id="3" depart="0.00">
        <route edges="-31649598#1 -31649598#0 31581244#0"/>
    </vehicle>
</routes>
