<?xml version="1.0" encoding="UTF-8"?>

<!-- generated on Tue May 24 23:34:22 2016 by SUMO duarouter Version 0.25.0
<?xml version="1.0" encoding="UTF-8"?>

<configuration xmlns:xsi="http://www.w3.org/2001/XMLSchema-instance" xsi:noNamespaceSchemaLocation="http://sumo.dlr.de/xsd/duarouterConfiguration.xsd">

    <input>
        <net-file value="zorilor.net.xml"/>
        <trip-files value="trips.xml"/>
    </input>

    <output>
        <output-file value="trip_result.rou.xml"/>
    </output>

</configuration>
-->

<routes xmlns:xsi="http://www.w3.org/2001/XMLSchema-instance" xsi:noNamespaceSchemaLocation="http://sumo.dlr.de/xsd/routes_file.xsd">
    <vehicle id="0" depart="0.00">
        <route edges="23893226 -7932203#1 -7932203#0 10510909#1 10510909#2 -8028548 7927518"/>
    </vehicle>
    <vehicle id="1" depart="0.00">
        <route edges="-7927518 8028548 10510909#3 10510909#4 10510909#0 7932203#0 7932203#1 -23893226"/>
    </vehicle>
    <vehicle id="2" depart="0.00">
        <route edges="55557174 10510909#2 10510909#3 10510908#0"/>
    </vehicle>
    <vehicle id="3" depart="0.00">
        <route edges="-10510908#0 10510909#4 10510909#0 10510909#1 -55557174"/>
    </vehicle>
    <vehicle id="4" depart="0.00">
        <route edges="8028548 10510909#3 10510908#0 10510908#1 47806443#0 47806443#1 47806443#2 47806443#3 47806443#4 -25308543 25308543"/>
    </vehicle>
</routes>
