
<routes>
    <vType accel="5.0" decel="2.0" id="model1" length="7.0" color="1,0,0" maxSpeed="21.0" sigma="0.0"/>
    <vType accel="3.0" decel="2.5" id="model2" length="7.0" color="1,0,0" maxSpeed="19.0" sigma="0.0"/>
    <vType accel="4.0" decel="1.5" id="model3" length="7.0" color="1,0,0" maxSpeed="18.0" sigma="0.0"/>

    <route id="r0" edges="-46331812 31649598#0 31649598#1"/>
    <route id="r1" edges="-31581244#0 46331812"/>
    <route id="r2" edges="-31649598#1 -31649598#0 31581244#0"/>
    <vehicle depart="0" departLane="0" id="veh0" route="r0" type="model1"/>
</routes>
