<?xml version="1.0" encoding="UTF-8"?>

<!-- generated on Wed Apr 27 17:50:59 2016 by SUMO netconvert Version 0.25.0
<?xml version="1.0" encoding="UTF-8"?>

<configuration xmlns:xsi="http://www.w3.org/2001/XMLSchema-instance" xsi:noNamespaceSchemaLocation="http://sumo.dlr.de/xsd/netconvertConfiguration.xsd">

    <input>
        <osm-files value="zorilor_complex_reduced.osm"/>
    </input>

    <output>
        <output-file value="sumo/zorilor.net.xml"/>
    </output>

    <projection>
        <proj.utm value="true"/>
    </projection>

</configuration>
-->

<net version="0.25" xmlns:xsi="http://www.w3.org/2001/XMLSchema-instance" xsi:noNamespaceSchemaLocation="http://sumo.dlr.de/xsd/net_file.xsd">

    <location netOffset="-696493.69,-5179431.21" convBoundary="0.00,0.00,2289.82,2744.18" origBoundary="23.572904,46.739194,23.602848,46.763855" projParameter="+proj=utm +zone=34 +ellps=WGS84 +datum=WGS84 +units=m +no_defs"/>

    <type id="highway.bridleway" priority="1" numLanes="1" speed="2.78" allow="pedestrian" oneway="1" width="2.00"/>
    <type id="highway.bus_guideway" priority="1" numLanes="1" speed="8.33" allow="bus" oneway="1"/>
    <type id="highway.cycleway" priority="1" numLanes="1" speed="5.56" allow="bicycle" oneway="0" width="1.00"/>
    <type id="highway.footway" priority="1" numLanes="1" speed="8.33" allow="pedestrian" oneway="1" width="2.00"/>
    <type id="highway.ford" priority="1" numLanes="1" speed="2.78" allow="army" oneway="0"/>
    <type id="highway.living_street" priority="3" numLanes="1" speed="2.78" disallow="tram rail_urban rail rail_electric ship" oneway="0"/>
    <type id="highway.motorway" priority="13" numLanes="2" speed="44.44" allow="private emergency authority army vip passenger hov taxi bus coach delivery truck trailer motorcycle evehicle custom1 custom2" oneway="1"/>
    <type id="highway.motorway_link" priority="12" numLanes="1" speed="22.22" allow="private emergency authority army vip passenger hov taxi bus coach delivery truck trailer motorcycle evehicle custom1 custom2" oneway="1"/>
    <type id="highway.path" priority="1" numLanes="1" speed="2.78" allow="bicycle pedestrian" oneway="1" width="2.00"/>
    <type id="highway.pedestrian" priority="1" numLanes="1" speed="8.33" allow="pedestrian" oneway="1" width="2.00"/>
    <type id="highway.primary" priority="9" numLanes="2" speed="27.78" disallow="tram rail_urban rail rail_electric ship" oneway="0"/>
    <type id="highway.primary_link" priority="8" numLanes="1" speed="22.22" disallow="tram rail_urban rail rail_electric ship" oneway="0"/>
    <type id="highway.raceway" priority="14" numLanes="2" speed="83.33" allow="vip" oneway="0"/>
    <type id="highway.residential" priority="4" numLanes="1" speed="13.89" disallow="tram rail_urban rail rail_electric ship" oneway="0"/>
    <type id="highway.secondary" priority="7" numLanes="2" speed="27.78" disallow="tram rail_urban rail rail_electric ship" oneway="0"/>
    <type id="highway.secondary_link" priority="6" numLanes="1" speed="22.22" disallow="tram rail_urban rail rail_electric ship" oneway="0"/>
    <type id="highway.service" priority="2" numLanes="1" speed="5.56" allow="delivery bicycle pedestrian" oneway="0"/>
    <type id="highway.services" priority="1" numLanes="1" speed="8.33" disallow="tram rail_urban rail rail_electric ship" oneway="0"/>
    <type id="highway.stairs" priority="1" numLanes="1" speed="1.39" allow="pedestrian" oneway="1" width="2.00"/>
    <type id="highway.step" priority="1" numLanes="1" speed="1.39" allow="pedestrian" oneway="1" width="2.00"/>
    <type id="highway.steps" priority="1" numLanes="1" speed="1.39" allow="pedestrian" oneway="1" width="2.00"/>
    <type id="highway.tertiary" priority="6" numLanes="1" speed="22.22" disallow="tram rail_urban rail rail_electric ship" oneway="0"/>
    <type id="highway.tertiary_link" priority="5" numLanes="1" speed="22.22" disallow="tram rail_urban rail rail_electric ship" oneway="0"/>
    <type id="highway.track" priority="1" numLanes="1" speed="5.56" disallow="tram rail_urban rail rail_electric ship" oneway="0"/>
    <type id="highway.trunk" priority="11" numLanes="2" speed="27.78" disallow="tram rail_urban rail rail_electric bicycle pedestrian ship" oneway="0"/>
    <type id="highway.trunk_link" priority="10" numLanes="1" speed="22.22" disallow="tram rail_urban rail rail_electric bicycle pedestrian ship" oneway="0"/>
    <type id="highway.unclassified" priority="5" numLanes="1" speed="13.89" disallow="tram rail_urban rail rail_electric ship" oneway="0"/>
    <type id="highway.unsurfaced" priority="1" numLanes="1" speed="8.33" disallow="tram rail_urban rail rail_electric ship" oneway="0"/>
    <type id="railway.light_rail" priority="15" numLanes="1" speed="27.78" allow="rail_urban" oneway="1"/>
    <type id="railway.preserved" priority="15" numLanes="1" speed="27.78" allow="rail" oneway="1"/>
    <type id="railway.rail" priority="15" numLanes="1" speed="83.33" allow="rail rail_electric" oneway="1"/>
    <type id="railway.subway" priority="15" numLanes="1" speed="27.78" allow="rail_urban" oneway="1"/>
    <type id="railway.tram" priority="15" numLanes="1" speed="13.89" allow="tram" oneway="1"/>

    <edge id=":1015925335_0" function="internal">
        <lane id=":1015925335_0_0" index="0" disallow="tram rail_urban rail rail_electric ship" speed="20.84" length="5.02" shape="1528.06,1859.29 1526.68,1859.30 1525.64,1859.75 1524.94,1860.64 1524.58,1861.97"/>
    </edge>
    <edge id=":1015925335_1" function="internal">
        <lane id=":1015925335_1_0" index="0" disallow="tram rail_urban rail rail_electric ship" speed="27.78" length="9.34" shape="1528.06,1859.29 1518.76,1857.77"/>
        <lane id=":1015925335_1_1" index="1" disallow="tram rail_urban rail rail_electric ship" speed="27.78" length="9.34" shape="1528.51,1856.02 1519.38,1854.53"/>
    </edge>
    <edge id=":1015925335_3" function="internal">
        <lane id=":1015925335_3_0" index="0" disallow="tram rail_urban rail rail_electric ship" speed="27.78" length="2.41" shape="1528.51,1856.02 1527.40,1855.04 1527.10,1854.16"/>
    </edge>
    <edge id=":1015925335_11" function="internal">
        <lane id=":1015925335_11_0" index="0" speed="27.78" length="2.41" shape="1527.10,1854.16 1527.62,1853.40 1528.96,1852.75"/>
    </edge>
    <edge id=":1015925335_4" function="internal">
        <lane id=":1015925335_4_0" index="0" disallow="tram rail_urban rail rail_electric ship" speed="27.78" length="8.99" shape="1520.62,1848.05 1529.41,1849.48"/>
        <lane id=":1015925335_4_1" index="1" disallow="tram rail_urban rail rail_electric ship" speed="27.78" length="8.99" shape="1520.00,1851.29 1528.96,1852.75"/>
    </edge>
    <edge id=":1015925335_6" function="internal">
        <lane id=":1015925335_6_0" index="0" disallow="tram rail_urban rail rail_electric ship" speed="20.84" length="4.13" shape="1520.00,1851.29 1522.44,1852.37 1523.31,1853.55"/>
    </edge>
    <edge id=":1015925335_7" function="internal">
        <lane id=":1015925335_7_0" index="0" disallow="tram rail_urban rail rail_electric ship" speed="27.78" length="2.41" shape="1520.00,1851.29 1521.06,1852.34 1521.31,1853.22"/>
    </edge>
    <edge id=":1015925335_12" function="internal">
        <lane id=":1015925335_12_0" index="0" speed="20.84" length="8.73" shape="1523.31,1853.55 1524.02,1854.51 1524.73,1857.71 1524.58,1861.97"/>
    </edge>
    <edge id=":1015925335_13" function="internal">
        <lane id=":1015925335_13_0" index="0" speed="27.78" length="2.41" shape="1521.31,1853.22 1520.75,1853.96 1519.38,1854.53"/>
    </edge>
    <edge id=":1015925335_8" function="internal">
        <lane id=":1015925335_8_0" index="0" disallow="tram rail_urban rail rail_electric ship" speed="20.84" length="5.14" shape="1521.31,1861.57 1521.30,1860.12 1520.87,1859.01 1520.02,1858.22 1518.76,1857.77"/>
    </edge>
    <edge id=":1015925335_9" function="internal">
        <lane id=":1015925335_9_0" index="0" disallow="tram rail_urban rail rail_electric ship" speed="20.84" length="13.21" shape="1521.31,1861.57 1522.23,1857.38 1523.81,1854.51 1526.05,1852.97 1528.96,1852.75"/>
    </edge>
    <edge id=":1015925335_10" function="internal">
        <lane id=":1015925335_10_0" index="0" disallow="tram rail_urban rail rail_electric ship" speed="13.89" length="4.82" shape="1521.31,1861.57 1522.28,1860.44 1523.14,1860.13 1523.91,1860.64 1524.58,1861.97"/>
    </edge>
    <edge id=":1449642198_0" function="internal">
        <lane id=":1449642198_0_0" index="0" disallow="tram rail_urban rail rail_electric ship" speed="13.89" length="4.82" shape="1226.49,1571.23 1225.23,1570.43 1224.80,1569.61 1225.20,1568.78 1226.42,1567.93"/>
    </edge>
    <edge id=":1503323615_0" function="internal">
        <lane id=":1503323615_0_0" index="0" disallow="tram rail_urban rail rail_electric ship" speed="13.89" length="4.82" shape="1290.23,1260.91 1289.02,1260.06 1288.63,1259.22 1289.06,1258.41 1290.32,1257.62"/>
    </edge>
    <edge id=":1803149292_0" function="internal">
        <lane id=":1803149292_0_0" index="0" disallow="tram rail_urban rail rail_electric ship" speed="13.89" length="5.04" shape="1986.80,870.00 1985.44,869.69 1984.33,869.89 1983.45,870.61 1982.81,871.84"/>
    </edge>
    <edge id=":1803149292_1" function="internal">
        <lane id=":1803149292_1_0" index="0" disallow="tram rail_urban rail rail_electric ship" speed="13.89" length="9.76" shape="1986.80,870.00 1977.72,866.39"/>
    </edge>
    <edge id=":1803149292_2" function="internal">
        <lane id=":1803149292_2_0" index="0" disallow="tram rail_urban rail rail_electric ship" speed="13.89" length="10.51" shape="1986.80,870.00 1984.29,868.60 1982.82,866.72 1982.38,864.38 1982.98,861.56"/>
    </edge>
    <edge id=":1803149292_3" function="internal">
        <lane id=":1803149292_3_0" index="0" disallow="tram rail_urban rail rail_electric ship" speed="13.89" length="4.82" shape="1986.80,870.00 1985.94,868.78 1985.85,867.86 1986.53,867.24 1987.98,866.92"/>
    </edge>
    <edge id=":1803149292_4" function="internal">
        <lane id=":1803149292_4_0" index="0" disallow="tram rail_urban rail rail_electric ship" speed="13.89" length="5.27" shape="1986.08,862.69 1985.78,864.10 1986.00,865.28 1986.73,866.22 1987.98,866.92"/>
    </edge>
    <edge id=":1803149292_5" function="internal">
        <lane id=":1803149292_5_0" index="0" disallow="tram rail_urban rail rail_electric ship" speed="13.89" length="9.71" shape="1986.08,862.69 1982.81,871.84"/>
    </edge>
    <edge id=":1803149292_6" function="internal">
        <lane id=":1803149292_6_0" index="0" disallow="tram rail_urban rail rail_electric ship" speed="13.89" length="5.26" shape="1986.08,862.69 1984.71,865.25 1982.86,866.71"/>
    </edge>
    <edge id=":1803149292_7" function="internal">
        <lane id=":1803149292_7_0" index="0" disallow="tram rail_urban rail rail_electric ship" speed="13.89" length="2.41" shape="1986.08,862.69 1984.88,863.57 1983.96,863.68"/>
    </edge>
    <edge id=":1803149292_16" function="internal">
        <lane id=":1803149292_16_0" index="0" speed="13.89" length="5.26" shape="1982.86,866.71 1980.53,867.10 1977.72,866.39"/>
    </edge>
    <edge id=":1803149292_17" function="internal">
        <lane id=":1803149292_17_0" index="0" speed="13.89" length="2.41" shape="1983.96,863.68 1983.33,863.01 1982.98,861.56"/>
    </edge>
    <edge id=":1803149292_8" function="internal">
        <lane id=":1803149292_8_0" index="0" disallow="tram rail_urban rail rail_electric ship" speed="13.89" length="5.05" shape="1978.97,863.34 1980.32,863.68 1981.43,863.49 1982.32,862.79 1982.98,861.56"/>
    </edge>
    <edge id=":1803149292_9" function="internal">
        <lane id=":1803149292_9_0" index="0" disallow="tram rail_urban rail rail_electric ship" speed="13.89" length="9.70" shape="1978.97,863.34 1987.98,866.92"/>
    </edge>
    <edge id=":1803149292_10" function="internal">
        <lane id=":1803149292_10_0" index="0" disallow="tram rail_urban rail rail_electric ship" speed="13.89" length="10.52" shape="1978.97,863.34 1981.45,864.78 1982.91,866.68 1983.37,869.03 1982.81,871.84"/>
    </edge>
    <edge id=":1803149292_11" function="internal">
        <lane id=":1803149292_11_0" index="0" disallow="tram rail_urban rail rail_electric ship" speed="13.89" length="4.82" shape="1978.97,863.34 1979.80,864.57 1979.87,865.49 1979.18,866.10 1977.72,866.39"/>
    </edge>
    <edge id=":1803149292_12" function="internal">
        <lane id=":1803149292_12_0" index="0" disallow="tram rail_urban rail rail_electric ship" speed="13.89" length="5.40" shape="1979.70,870.75 1979.98,869.31 1979.75,868.11 1978.99,867.13 1977.72,866.39"/>
    </edge>
    <edge id=":1803149292_13" function="internal">
        <lane id=":1803149292_13_0" index="0" disallow="tram rail_urban rail rail_electric ship" speed="13.89" length="9.75" shape="1979.70,870.75 1982.98,861.56"/>
    </edge>
    <edge id=":1803149292_14" function="internal">
        <lane id=":1803149292_14_0" index="0" disallow="tram rail_urban rail rail_electric ship" speed="13.89" length="5.35" shape="1979.70,870.75 1981.03,868.19 1982.85,866.70 1982.96,866.68"/>
    </edge>
    <edge id=":1803149292_15" function="internal">
        <lane id=":1803149292_15_0" index="0" disallow="tram rail_urban rail rail_electric ship" speed="13.89" length="2.41" shape="1979.70,870.75 1980.89,869.85 1981.80,869.74"/>
    </edge>
    <edge id=":1803149292_18" function="internal">
        <lane id=":1803149292_18_0" index="0" speed="13.89" length="5.14" shape="1982.96,866.68 1985.17,866.27 1987.98,866.92"/>
    </edge>
    <edge id=":1803149292_19" function="internal">
        <lane id=":1803149292_19_0" index="0" speed="13.89" length="2.41" shape="1981.80,869.74 1982.44,870.40 1982.81,871.84"/>
    </edge>
    <edge id=":1803149297_0" function="internal">
        <lane id=":1803149297_0_0" index="0" disallow="tram rail_urban rail rail_electric ship" speed="20.84" length="5.24" shape="1867.57,1004.81 1866.14,1004.46 1865.02,1004.69 1864.21,1005.50 1863.72,1006.89"/>
    </edge>
    <edge id=":1803149297_1" function="internal">
        <lane id=":1803149297_1_0" index="0" disallow="tram rail_urban rail rail_electric ship" speed="27.78" length="9.64" shape="1867.57,1004.81 1858.61,1001.26"/>
    </edge>
    <edge id=":1803149297_2" function="internal">
        <lane id=":1803149297_2_0" index="0" disallow="tram rail_urban rail rail_electric ship" speed="27.78" length="2.41" shape="1867.57,1004.81 1866.73,1003.58 1866.66,1002.66"/>
    </edge>
    <edge id=":1803149297_9" function="internal">
        <lane id=":1803149297_9_0" index="0" speed="27.78" length="2.41" shape="1866.66,1002.66 1867.35,1002.05 1868.81,1001.75"/>
    </edge>
    <edge id=":1803149297_3" function="internal">
        <lane id=":1803149297_3_0" index="0" disallow="tram rail_urban rail rail_electric ship" speed="27.78" length="9.69" shape="1859.80,998.18 1868.81,1001.75"/>
    </edge>
    <edge id=":1803149297_4" function="internal">
        <lane id=":1803149297_4_0" index="0" disallow="tram rail_urban rail rail_electric ship" speed="20.84" length="4.91" shape="1859.80,998.18 1862.01,999.48 1863.40,1001.37"/>
    </edge>
    <edge id=":1803149297_5" function="internal">
        <lane id=":1803149297_5_0" index="0" disallow="tram rail_urban rail rail_electric ship" speed="27.78" length="2.41" shape="1859.80,998.18 1860.66,999.40 1860.74,1000.32"/>
    </edge>
    <edge id=":1803149297_10" function="internal">
        <lane id=":1803149297_10_0" index="0" speed="20.84" length="5.60" shape="1863.40,1001.37 1863.97,1003.84 1863.72,1006.89"/>
    </edge>
    <edge id=":1803149297_11" function="internal">
        <lane id=":1803149297_11_0" index="0" speed="27.78" length="2.41" shape="1860.74,1000.32 1860.06,1000.94 1858.61,1001.26"/>
    </edge>
    <edge id=":1803149297_6" function="internal">
        <lane id=":1803149297_6_0" index="0" disallow="tram rail_urban rail rail_electric ship" speed="20.84" length="5.85" shape="1860.48,1006.26 1860.66,1004.46 1860.41,1003.02 1859.72,1001.96 1858.61,1001.26"/>
    </edge>
    <edge id=":1803149297_7" function="internal">
        <lane id=":1803149297_7_0" index="0" disallow="tram rail_urban rail rail_electric ship" speed="20.84" length="11.34" shape="1860.48,1006.26 1861.54,1003.24 1863.28,1001.48 1865.70,1000.99 1868.81,1001.75"/>
    </edge>
    <edge id=":1803149297_8" function="internal">
        <lane id=":1803149297_8_0" index="0" disallow="tram rail_urban rail rail_electric ship" speed="13.89" length="4.82" shape="1860.48,1006.26 1861.53,1005.20 1862.42,1004.96 1863.15,1005.52 1863.72,1006.89"/>
    </edge>
    <edge id=":1803149349_0" function="internal">
        <lane id=":1803149349_0_0" index="0" disallow="tram rail_urban rail rail_electric ship" speed="13.89" length="10.31" shape="1841.26,1431.50 1838.31,1432.16 1836.22,1432.60 1834.12,1433.00 1831.14,1433.47"/>
    </edge>
    <edge id=":1803149349_1" function="internal">
        <lane id=":1803149349_1_0" index="0" disallow="tram rail_urban rail rail_electric ship" speed="13.89" length="5.75" shape="1841.26,1431.50 1837.56,1431.79 1835.68,1430.98"/>
    </edge>
    <edge id=":1803149349_2" function="internal">
        <lane id=":1803149349_2_0" index="0" disallow="tram rail_urban rail rail_electric ship" speed="13.89" length="2.41" shape="1841.26,1431.50 1839.87,1430.96 1839.29,1430.24"/>
    </edge>
    <edge id=":1803149349_9" function="internal">
        <lane id=":1803149349_9_0" index="0" speed="13.89" length="6.91" shape="1835.68,1430.98 1835.15,1430.75 1834.03,1428.37 1834.20,1424.67"/>
    </edge>
    <edge id=":1803149349_10" function="internal">
        <lane id=":1803149349_10_0" index="0" speed="13.89" length="2.41" shape="1839.29,1430.24 1839.52,1429.35 1840.55,1428.28"/>
    </edge>
    <edge id=":1803149349_3" function="internal">
        <lane id=":1803149349_3_0" index="0" disallow="tram rail_urban rail rail_electric ship" speed="13.89" length="5.57" shape="1837.44,1425.27 1837.37,1426.90 1837.86,1427.95 1838.92,1428.41 1840.55,1428.28"/>
    </edge>
    <edge id=":1803149349_4" function="internal">
        <lane id=":1803149349_4_0" index="0" disallow="tram rail_urban rail rail_electric ship" speed="13.89" length="11.05" shape="1837.44,1425.27 1836.53,1428.58 1835.18,1431.04 1833.38,1432.68 1831.14,1433.47"/>
    </edge>
    <edge id=":1803149349_5" function="internal">
        <lane id=":1803149349_5_0" index="0" disallow="tram rail_urban rail rail_electric ship" speed="13.89" length="4.82" shape="1837.44,1425.27 1836.40,1426.34 1835.52,1426.59 1834.78,1426.04 1834.20,1424.67"/>
    </edge>
    <edge id=":1803149349_6" function="internal">
        <lane id=":1803149349_6_0" index="0" disallow="tram rail_urban rail rail_electric ship" speed="13.89" length="6.97" shape="1830.64,1430.21 1831.84,1429.72 1832.83,1428.63 1833.62,1426.94 1834.20,1424.67"/>
    </edge>
    <edge id=":1803149349_7" function="internal">
        <lane id=":1803149349_7_0" index="0" disallow="tram rail_urban rail rail_electric ship" speed="13.89" length="10.10" shape="1830.64,1430.21 1833.59,1429.74 1835.62,1429.36 1837.63,1428.93 1840.55,1428.28"/>
    </edge>
    <edge id=":1803149349_8" function="internal">
        <lane id=":1803149349_8_0" index="0" disallow="tram rail_urban rail rail_electric ship" speed="13.89" length="2.41" shape="1830.64,1430.21 1831.99,1430.84 1832.52,1431.59"/>
    </edge>
    <edge id=":1803149349_11" function="internal">
        <lane id=":1803149349_11_0" index="0" speed="13.89" length="2.41" shape="1832.52,1431.59 1832.24,1432.47 1831.14,1433.47"/>
    </edge>
    <edge id=":1803149350_0" function="internal">
        <lane id=":1803149350_0_0" index="0" disallow="tram rail_urban rail rail_electric ship" speed="20.84" length="5.21" shape="1915.19,1023.85 1913.76,1023.55 1912.65,1023.81 1911.85,1024.63 1911.39,1026.02"/>
    </edge>
    <edge id=":1803149350_1" function="internal">
        <lane id=":1803149350_1_0" index="0" disallow="tram rail_urban rail rail_electric ship" speed="27.78" length="9.56" shape="1915.19,1023.85 1906.27,1020.43"/>
    </edge>
    <edge id=":1803149350_2" function="internal">
        <lane id=":1803149350_2_0" index="0" disallow="tram rail_urban rail rail_electric ship" speed="27.78" length="2.41" shape="1915.19,1023.85 1914.31,1022.65 1914.21,1021.73"/>
    </edge>
    <edge id=":1803149350_9" function="internal">
        <lane id=":1803149350_9_0" index="0" speed="27.78" length="2.41" shape="1914.21,1021.73 1914.88,1021.10 1916.33,1020.75"/>
    </edge>
    <edge id=":1803149350_3" function="internal">
        <lane id=":1803149350_3_0" index="0" disallow="tram rail_urban rail rail_electric ship" speed="27.78" length="9.45" shape="1907.50,1017.37 1916.33,1020.75"/>
    </edge>
    <edge id=":1803149350_4" function="internal">
        <lane id=":1803149350_4_0" index="0" disallow="tram rail_urban rail rail_electric ship" speed="20.84" length="4.85" shape="1907.50,1017.37 1909.66,1018.68 1911.02,1020.56"/>
    </edge>
    <edge id=":1803149350_5" function="internal">
        <lane id=":1803149350_5_0" index="0" disallow="tram rail_urban rail rail_electric ship" speed="27.78" length="2.41" shape="1907.50,1017.37 1908.34,1018.60 1908.41,1019.52"/>
    </edge>
    <edge id=":1803149350_10" function="internal">
        <lane id=":1803149350_10_0" index="0" speed="20.84" length="5.53" shape="1911.02,1020.56 1911.60,1023.01 1911.39,1026.02"/>
    </edge>
    <edge id=":1803149350_11" function="internal">
        <lane id=":1803149350_11_0" index="0" speed="27.78" length="2.41" shape="1908.41,1019.52 1907.72,1020.13 1906.27,1020.43"/>
    </edge>
    <edge id=":1803149350_6" function="internal">
        <lane id=":1803149350_6_0" index="0" disallow="tram rail_urban rail rail_electric ship" speed="20.84" length="5.81" shape="1908.14,1025.42 1908.30,1023.63 1908.04,1022.20 1907.36,1021.14 1906.27,1020.43"/>
    </edge>
    <edge id=":1803149350_7" function="internal">
        <lane id=":1803149350_7_0" index="0" disallow="tram rail_urban rail rail_electric ship" speed="20.84" length="11.22" shape="1908.14,1025.42 1909.15,1022.43 1910.85,1020.66 1913.25,1020.10 1916.33,1020.75"/>
    </edge>
    <edge id=":1803149350_8" function="internal">
        <lane id=":1803149350_8_0" index="0" disallow="tram rail_urban rail rail_electric ship" speed="13.89" length="4.82" shape="1908.14,1025.42 1909.18,1024.35 1910.06,1024.10 1910.80,1024.65 1911.39,1026.02"/>
    </edge>
    <edge id=":1803149354_0" function="internal">
        <lane id=":1803149354_0_0" index="0" disallow="tram rail_urban rail rail_electric ship" speed="27.78" length="9.68" shape="1798.61,978.13 1789.63,974.50"/>
    </edge>
    <edge id=":1803149354_1" function="internal">
        <lane id=":1803149354_1_0" index="0" disallow="tram rail_urban rail rail_electric ship" speed="20.84" length="5.17" shape="1798.61,978.13 1796.27,976.78 1794.87,974.91 1794.85,974.78"/>
    </edge>
    <edge id=":1803149354_2" function="internal">
        <lane id=":1803149354_2_0" index="0" disallow="tram rail_urban rail rail_electric ship" speed="27.78" length="2.41" shape="1798.61,978.13 1797.75,976.91 1797.66,976.00"/>
    </edge>
    <edge id=":1803149354_9" function="internal">
        <lane id=":1803149354_9_0" index="0" speed="20.84" length="5.29" shape="1794.85,974.78 1794.40,972.51 1794.87,969.57"/>
    </edge>
    <edge id=":1803149354_10" function="internal">
        <lane id=":1803149354_10_0" index="0" speed="27.78" length="2.41" shape="1797.66,976.00 1798.34,975.37 1799.79,975.05"/>
    </edge>
    <edge id=":1803149354_3" function="internal">
        <lane id=":1803149354_3_0" index="0" disallow="tram rail_urban rail rail_electric ship" speed="20.84" length="5.46" shape="1798.04,970.49 1797.77,972.08 1797.97,973.38 1798.64,974.36 1799.79,975.05"/>
    </edge>
    <edge id=":1803149354_4" function="internal">
        <lane id=":1803149354_4_0" index="0" disallow="tram rail_urban rail rail_electric ship" speed="20.84" length="10.93" shape="1798.04,970.49 1796.78,973.26 1794.96,974.85 1792.58,975.27 1789.63,974.50"/>
    </edge>
    <edge id=":1803149354_5" function="internal">
        <lane id=":1803149354_5_0" index="0" disallow="tram rail_urban rail rail_electric ship" speed="13.89" length="4.82" shape="1798.04,970.49 1796.90,971.45 1795.99,971.61 1795.31,970.99 1794.87,969.57"/>
    </edge>
    <edge id=":1803149354_6" function="internal">
        <lane id=":1803149354_6_0" index="0" disallow="tram rail_urban rail rail_electric ship" speed="20.84" length="5.14" shape="1790.91,971.46 1792.30,971.82 1793.42,971.63 1794.27,970.88 1794.87,969.57"/>
    </edge>
    <edge id=":1803149354_7" function="internal">
        <lane id=":1803149354_7_0" index="0" disallow="tram rail_urban rail rail_electric ship" speed="27.78" length="9.58" shape="1790.91,971.46 1799.79,975.05"/>
    </edge>
    <edge id=":1803149354_8" function="internal">
        <lane id=":1803149354_8_0" index="0" disallow="tram rail_urban rail rail_electric ship" speed="27.78" length="2.41" shape="1790.91,971.46 1791.73,972.70 1791.79,973.62"/>
    </edge>
    <edge id=":1803149354_11" function="internal">
        <lane id=":1803149354_11_0" index="0" speed="27.78" length="2.41" shape="1791.79,973.62 1791.09,974.22 1789.63,974.50"/>
    </edge>
    <edge id=":1803149360_0" function="internal">
        <lane id=":1803149360_0_0" index="0" disallow="tram rail_urban rail rail_electric ship" speed="13.89" length="4.82" shape="1886.22,682.64 1887.07,683.86 1887.15,684.78 1886.46,685.39 1885.01,685.71"/>
    </edge>
    <edge id=":1803149362_0" function="internal">
        <lane id=":1803149362_0_0" index="0" disallow="tram rail_urban rail rail_electric ship" speed="13.89" length="4.82" shape="2029.60,877.44 2030.66,878.48 2030.91,879.37 2030.35,880.10 2028.98,880.68"/>
    </edge>
    <edge id=":1803149375_0" function="internal">
        <lane id=":1803149375_0_0" index="0" disallow="tram rail_urban rail rail_electric ship" speed="13.89" length="4.82" shape="2018.14,913.04 2019.22,914.06 2019.49,914.94 2018.94,915.69 2017.58,916.29"/>
    </edge>
    <edge id=":1803149376_0" function="internal">
        <lane id=":1803149376_0_0" index="0" disallow="tram rail_urban rail rail_electric ship" speed="13.89" length="0.98" shape="2017.66,759.15 2017.35,758.22"/>
    </edge>
    <edge id=":1803149376_1" function="internal">
        <lane id=":1803149376_1_0" index="0" disallow="tram rail_urban rail rail_electric ship" speed="13.89" length="1.87" shape="2017.66,759.15 2018.46,757.90 2018.81,757.72"/>
    </edge>
    <edge id=":1803149376_4" function="internal">
        <lane id=":1803149376_4_0" index="0" speed="13.89" length="2.95" shape="2018.81,757.72 2019.28,757.47 2020.11,757.87 2020.96,759.09"/>
    </edge>
    <edge id=":1803149376_2" function="internal">
        <lane id=":1803149376_2_0" index="0" disallow="tram rail_urban rail rail_electric ship" speed="13.89" length="2.99" shape="2020.00,756.26 2020.96,759.09"/>
    </edge>
    <edge id=":1803149376_3" function="internal">
        <lane id=":1803149376_3_0" index="0" disallow="tram rail_urban rail rail_electric ship" speed="13.89" length="2.41" shape="2020.00,756.26 2020.07,757.75 2019.65,758.57"/>
    </edge>
    <edge id=":1803149376_5" function="internal">
        <lane id=":1803149376_5_0" index="0" speed="13.89" length="2.41" shape="2019.65,758.57 2018.75,758.73 2017.35,758.22"/>
    </edge>
    <edge id=":1803149383_0" function="internal">
        <lane id=":1803149383_0_0" index="0" disallow="tram rail_urban rail rail_electric ship" speed="13.89" length="9.64" shape="1941.79,987.16 1938.56,996.24"/>
    </edge>
    <edge id=":1803149383_1" function="internal">
        <lane id=":1803149383_1_0" index="0" disallow="tram rail_urban rail rail_electric ship" speed="13.89" length="5.41" shape="1941.79,987.16 1940.45,989.77 1938.62,991.28 1938.51,991.29"/>
    </edge>
    <edge id=":1803149383_2" function="internal">
        <lane id=":1803149383_2_0" index="0" disallow="tram rail_urban rail rail_electric ship" speed="13.89" length="2.41" shape="1941.79,987.16 1940.61,988.06 1939.69,988.19"/>
    </edge>
    <edge id=":1803149383_9" function="internal">
        <lane id=":1803149383_9_0" index="0" speed="13.89" length="5.20" shape="1938.51,991.29 1936.28,991.68 1933.43,990.97"/>
    </edge>
    <edge id=":1803149383_10" function="internal">
        <lane id=":1803149383_10_0" index="0" speed="13.89" length="2.41" shape="1939.69,988.19 1939.04,987.53 1938.66,986.09"/>
    </edge>
    <edge id=":1803149383_3" function="internal">
        <lane id=":1803149383_3_0" index="0" disallow="tram rail_urban rail rail_electric ship" speed="13.89" length="5.07" shape="1934.67,987.92 1936.03,988.25 1937.15,988.06 1938.03,987.34 1938.66,986.09"/>
    </edge>
    <edge id=":1803149383_4" function="internal">
        <lane id=":1803149383_4_0" index="0" disallow="tram rail_urban rail rail_electric ship" speed="13.89" length="10.40" shape="1934.67,987.92 1937.19,989.36 1938.68,991.22 1939.13,993.52 1938.56,996.24"/>
    </edge>
    <edge id=":1803149383_5" function="internal">
        <lane id=":1803149383_5_0" index="0" disallow="tram rail_urban rail rail_electric ship" speed="13.89" length="4.82" shape="1934.67,987.92 1935.51,989.15 1935.58,990.07 1934.89,990.67 1933.43,990.97"/>
    </edge>
    <edge id=":1803149383_6" function="internal">
        <lane id=":1803149383_6_0" index="0" disallow="tram rail_urban rail rail_electric ship" speed="13.89" length="5.20" shape="1935.47,995.09 1935.74,993.76 1935.49,992.63 1934.72,991.70 1933.43,990.97"/>
    </edge>
    <edge id=":1803149383_7" function="internal">
        <lane id=":1803149383_7_0" index="0" disallow="tram rail_urban rail rail_electric ship" speed="13.89" length="9.55" shape="1935.47,995.09 1938.66,986.09"/>
    </edge>
    <edge id=":1803149383_8" function="internal">