<routes>
<vType accel="12.641182" decel="1.861443" id="model0" length="7.0" color="1,0,0" maxSpeed="21.062441" sigma="0.0"/>
<vType accel="12.645313" decel="1.756875" id="model1" length="7.0" color="1,0,0" maxSpeed="20.822235" sigma="0.0"/>
<vType accel="11.197551" decel="1.743325" id="model2" length="7.0" color="1,0,0" maxSpeed="20.148345" sigma="0.0"/>
<vType accel="14.272839" decel="1.971006" id="model3" length="7.0" color="1,0,0" maxSpeed="18.070427" sigma="0.0"/>
<vType accel="11.487539" decel="1.819074" id="model4" length="7.0" color="1,0,0" maxSpeed="18.045661" sigma="0.0"/>
<vType accel="14.566041" decel="1.991359" id="model5" length="7.0" color="1,0,0" maxSpeed="19.418043" sigma="0.0"/>
<vType accel="10.385136" decel="1.921647" id="model6" length="7.0" color="1,0,0" maxSpeed="19.862675" sigma="0.0"/>
<vType accel="14.610929" decel="1.921871" id="model7" length="7.0" color="1,0,0" maxSpeed="21.486627" sigma="0.0"/>
<vType accel="10.152258" decel="1.703166" id="model8" length="7.0" color="1,0,0" maxSpeed="20.718196" sigma="0.0"/>
<vType accel="12.183211" decel="1.722707" id="model9" length="7.0" color="1,0,0" maxSpeed="19.302782" sigma="0.0"/>
<vType accel="10.968954" decel="1.601748" id="model10" length="7.0" color="1,0,0" maxSpeed="20.428912" sigma="0.0"/>
<vType accel="10.134465" decel="1.871915" id="model11" length="7.0" color="1,0,0" maxSpeed="20.037059" sigma="0.0"/>
<vType accel="11.316413" decel="1.644306" id="model12" length="7.0" color="1,0,0" maxSpeed="18.144279" sigma="0.0"/>
<vType accel="11.381659" decel="1.636751" id="model13" length="7.0" color="1,0,0" maxSpeed="19.851869" sigma="0.0"/>
<vType accel="11.454416" decel="1.925073" id="model14" length="7.0" color="1,0,0" maxSpeed="18.100077" sigma="0.0"/>
<vType accel="11.725389" decel="1.600484" id="model15" length="7.0" color="1,0,0" maxSpeed="18.742323" sigma="0.0"/>
<vType accel="13.659542" decel="1.820699" id="model16" length="7.0" color="1,0,0" maxSpeed="20.328698" sigma="0.0"/>
<vType accel="10.328241" decel="1.945904" id="model17" length="7.0" color="1,0,0" maxSpeed="19.286972" sigma="0.0"/>
<vType accel="13.559806" decel="1.869735" id="model18" length="7.0" color="1,0,0" maxSpeed="20.360709" sigma="0.0"/>
<vType accel="13.045416" decel="1.694050" id="model19" length="7.0" color="1,0,0" maxSpeed="21.580049" sigma="0.0"/>
<vType accel="14.846998" decel="1.856098" id="model20" length="7.0" color="1,0,0" maxSpeed="18.801323" sigma="0.0"/>
<vType accel="13.393196" decel="1.937077" id="model21" length="7.0" color="1,0,0" maxSpeed="21.165321" sigma="0.0"/>
<vType accel="10.656381" decel="1.988674" id="model22" length="7.0" color="1,0,0" maxSpeed="20.684078" sigma="0.0"/>
<vType accel="13.504416" decel="1.804915" id="model23" length="7.0" color="1,0,0" maxSpeed="21.074184" sigma="0.0"/>
<vType accel="13.572692" decel="1.733637" id="model24" length="7.0" color="1,0,0" maxSpeed="21.438362" sigma="0.0"/>
<vType accel="11.952730" decel="1.790522" id="model25" length="7.0" color="1,0,0" maxSpeed="21.886846" sigma="0.0"/>
<vType accel="14.360310" decel="1.810134" id="model26" length="7.0" color="1,0,0" maxSpeed="19.745362" sigma="0.0"/>
<vType accel="13.965044" decel="1.807513" id="model27" length="7.0" color="1,0,0" maxSpeed="20.371424" sigma="0.0"/>
<vType accel="14.377777" decel="1.861530" id="model28" length="7.0" color="1,0,0" maxSpeed="20.726266" sigma="0.0"/>
<vType accel="14.246320" decel="1.561877" id="model29" length="7.0" color="1,0,0" maxSpeed="19.775753" sigma="0.0"/>
<vType accel="13.980678" decel="1.875669" id="model30" length="7.0" color="1,0,0" maxSpeed="18.692804" sigma="0.0"/>
<vType accel="12.759159" decel="1.866535" id="model31" length="7.0" color="1,0,0" maxSpeed="19.791835" sigma="0.0"/>
<vType accel="13.314937" decel="1.596615" id="model32" length="7.0" color="1,0,0" maxSpeed="18.343967" sigma="0.0"/>
<vType accel="13.219517" decel="1.538502" id="model33" length="7.0" color="1,0,0" maxSpeed="18.941141" sigma="0.0"/>
<vType accel="12.763059" decel="1.974054" id="model34" length="7.0" color="1,0,0" maxSpeed="19.997559" sigma="0.0"/>
<vType accel="11.694877" decel="1.981640" id="model35" length="7.0" color="1,0,0" maxSpeed="20.005529" sigma="0.0"/>
<vType accel="11.969202" decel="1.812011" id="model36" length="7.0" color="1,0,0" maxSpeed="19.835345" sigma="0.0"/>
<vType accel="14.326771" decel="1.531342" id="model37" length="7.0" color="1,0,0" maxSpeed="20.097606" sigma="0.0"/>
<vType accel="12.963737" decel="1.863468" id="model38" length="7.0" color="1,0,0" maxSpeed="21.436752" sigma="0.0"/>
<vType accel="13.982003" decel="1.861741" id="model39" length="7.0" color="1,0,0" maxSpeed="20.087618" sigma="0.0"/>
<vType accel="11.033033" decel="1.984898" id="model40" length="7.0" color="1,0,0" maxSpeed="18.246003" sigma="0.0"/>
<vType accel="10.986620" decel="1.756380" id="model41" length="7.0" color="1,0,0" maxSpeed="20.027961" sigma="0.0"/>
<vType accel="11.456301" decel="1.553939" id="model42" length="7.0" color="1,0,0" maxSpeed="20.518823" sigma="0.0"/>
<vType accel="11.892273" decel="1.877942" id="model43" length="7.0" color="1,0,0" maxSpeed="18.155995" sigma="0.0"/>
<vType accel="13.706109" decel="1.599586" id="model44" length="7.0" color="1,0,0" maxSpeed="20.993210" sigma="0.0"/>
<vType accel="11.994805" decel="1.896532" id="model45" length="7.0" color="1,0,0" maxSpeed="21.186787" sigma="0.0"/>
<vType accel="11.770339" decel="1.897634" id="model46" length="7.0" color="1,0,0" maxSpeed="21.305670" sigma="0.0"/>
<vType accel="11.705095" decel="1.650920" id="model47" length="7.0" color="1,0,0" maxSpeed="18.114100" sigma="0.0"/>
<vType accel="14.630896" decel="1.579499" id="model48" length="7.0" color="1,0,0" maxSpeed="21.339788" sigma="0.0"/>
<vType accel="14.815570" decel="1.754745" id="model49" length="7.0" color="1,0,0" maxSpeed="19.980073" sigma="0.0"/>
<vType accel="14.662501" decel="1.550258" id="model50" length="7.0" color="1,0,0" maxSpeed="20.657892" sigma="0.0"/>
<vType accel="10.921644" decel="1.896552" id="model51" length="7.0" color="1,0,0" maxSpeed="18.460592" sigma="0.0"/>
<vType accel="10.311295" decel="1.632361" id="model52" length="7.0" color="1,0,0" maxSpeed="18.578811" sigma="0.0"/>
<vType accel="10.907945" decel="1.919683" id="model53" length="7.0" color="1,0,0" maxSpeed="21.051401" sigma="0.0"/>
<vType accel="12.198899" decel="1.797500" id="model54" length="7.0" color="1,0,0" maxSpeed="21.856472" sigma="0.0"/>
<vType accel="10.577507" decel="1.776881" id="model55" length="7.0" color="1,0,0" maxSpeed="21.878836" sigma="0.0"/>
<vType accel="11.769963" decel="1.934697" id="model56" length="7.0" color="1,0,0" maxSpeed="19.178714" sigma="0.0"/>
<vType accel="11.742076" decel="1.554123" id="model57" length="7.0" color="1,0,0" maxSpeed="19.108798" sigma="0.0"/>
<vType accel="11.926220" decel="1.760827" id="model58" length="7.0" color="1,0,0" maxSpeed="19.569046" sigma="0.0"/>
<vType accel="12.173528" decel="1.509262" id="model59" length="7.0" color="1,0,0" maxSpeed="20.356130" sigma="0.0"/>
<vType accel="14.373093" decel="1.776883" id="model60" length="7.0" color="1,0,0" maxSpeed="20.377830" sigma="0.0"/>
<vType accel="14.574003" decel="1.723329" id="model61" length="7.0" color="1,0,0" maxSpeed="21.858445" sigma="0.0"/>
<vType accel="14.256953" decel="1.761355" id="model62" length="7.0" color="1,0,0" maxSpeed="18.358696" sigma="0.0"/>
<vType accel="12.620696" decel="1.564455" id="model63" length="7.0" color="1,0,0" maxSpeed="19.994722" sigma="0.0"/>
<vType accel="13.988751" decel="1.833282" id="model64" length="7.0" color="1,0,0" maxSpeed="20.724824" sigma="0.0"/>
<vType accel="11.154171" decel="1.816060" id="model65" length="7.0" color="1,0,0" maxSpeed="20.435044" sigma="0.0"/>
<vType accel="13.458161" decel="1.875062" id="model66" length="7.0" color="1,0,0" maxSpeed="18.926344" sigma="0.0"/>
<vType accel="12.732276" decel="1.788968" id="model67" length="7.0" color="1,0,0" maxSpeed="21.651658" sigma="0.0"/>
<vType accel="14.663790" decel="1.818996" id="model68" length="7.0" color="1,0,0" maxSpeed="18.801428" sigma="0.0"/>
<vType accel="10.082369" decel="1.584868" id="model69" length="7.0" color="1,0,0" maxSpeed="18.119327" sigma="0.0"/>
<vType accel="11.375329" decel="1.591634" id="model70" length="7.0" color="1,0,0" maxSpeed="21.525268" sigma="0.0"/>
<vType accel="13.125508" decel="1.672835" id="model71" length="7.0" color="1,0,0" maxSpeed="18.098872" sigma="0.0"/>
<vType accel="10.604560" decel="1.537006" id="model72" length="7.0" color="1,0,0" maxSpeed="19.871048" sigma="0.0"/>
<vType accel="14.281757" decel="1.870750" id="model73" length="7.0" color="1,0,0" maxSpeed="20.927800" sigma="0.0"/>
<vType accel="13.616406" decel="1.812881" id="model74" length="7.0" color="1,0,0" maxSpeed="21.571759" sigma="0.0"/>
<vType accel="13.007584" decel="1.913266" id="model75" length="7.0" color="1,0,0" maxSpeed="19.407743" sigma="0.0"/>
<vType accel="14.368038" decel="1.966072" id="model76" length="7.0" color="1,0,0" maxSpeed="20.952063" sigma="0.0"/>
<vType accel="10.085908" decel="1.815200" id="model77" length="7.0" color="1,0,0" maxSpeed="21.007252" sigma="0.0"/>
<vType accel="12.370423" decel="1.731607" id="model78" length="7.0" color="1,0,0" maxSpeed="18.847957" sigma="0.0"/>
<vType accel="14.942727" decel="1.940773" id="model79" length="7.0" color="1,0,0" maxSpeed="21.645420" sigma="0.0"/>
<vType accel="14.788390" decel="1.625284" id="model80" length="7.0" color="1,0,0" maxSpeed="21.332255" sigma="0.0"/>
<vType accel="13.528490" decel="1.573071" id="model81" length="7.0" color="1,0,0" maxSpeed="18.640370" sigma="0.0"/>
<vType accel="12.897248" decel="1.948407" id="model82" length="7.0" color="1,0,0" maxSpeed="19.638117" sigma="0.0"/>
<vType accel="10.260405" decel="1.966481" id="model83" length="7.0" color="1,0,0" maxSpeed="18.966844" sigma="0.0"/>
<vType accel="14.693129" decel="1.530744" id="model84" length="7.0" color="1,0,0" maxSpeed="20.329904" sigma="0.0"/>
<vType accel="14.975237" decel="1.731077" id="model85" length="7.0" color="1,0,0" maxSpeed="19.991264" sigma="0.0"/>
<vType accel="14.659563" decel="1.624545" id="model86" length="7.0" color="1,0,0" maxSpeed="19.941751" sigma="0.0"/>
<vType accel="12.913130" decel="1.954166" id="model87" length="7.0" color="1,0,0" maxSpeed="19.376932" sigma="0.0"/>
<vType accel="13.017957" decel="1.790283" id="model88" length="7.0" color="1,0,0" maxSpeed="20.634330" sigma="0.0"/>
<vType accel="11.299104" decel="1.508958" id="model89" length="7.0" color="1,0,0" maxSpeed="19.015803" sigma="0.0"/>
<vType accel="14.460665" decel="1.802023" id="model90" length="7.0" color="1,0,0" maxSpeed="18.986334" sigma="0.0"/>
<vType accel="12.450775" decel="1.891161" id="model91" length="7.0" color="1,0,0" maxSpeed="21.580536" sigma="0.0"/>
<vType accel="10.321083" decel="1.534500" id="model92" length="7.0" color="1,0,0" maxSpeed="21.625499" sigma="0.0"/>
<vType accel="13.721732" decel="1.913129" id="model93" length="7.0" color="1,0,0" maxSpeed="18.090762" sigma="0.0"/>
<vType accel="13.884815" decel="1.697019" id="model94" length="7.0" color="1,0,0" maxSpeed="21.765120" sigma="0.0"/>
<vType accel="14.577265" decel="1.648648" id="model95" length="7.0" color="1,0,0" maxSpeed="21.269765" sigma="0.0"/>
<vType accel="14.966494" decel="1.635497" id="model96" length="7.0" color="1,0,0" maxSpeed="19.958622" sigma="0.0"/>
<vType accel="10.232047" decel="1.658803" id="model97" length="7.0" color="1,0,0" maxSpeed="19.172811" sigma="0.0"/>
<vType accel="12.515352" decel="1.515346" id="model98" length="7.0" color="1,0,0" maxSpeed="19.526053" sigma="0.0"/>
<vType accel="12.446684" decel="1.826713" id="model99" length="7.0" color="1,0,0" maxSpeed="21.063238" sigma="0.0"/>
<vType accel="11.718392" decel="1.742841" id="model100" length="7.0" color="1,0,0" maxSpeed="21.798953" sigma="0.0"/>
<vType accel="14.097290" decel="1.982477" id="model101" length="7.0" color="1,0,0" maxSpeed="21.314908" sigma="0.0"/>
<vType accel="12.019847" decel="1.834687" id="model102" length="7.0" color="1,0,0" maxSpeed="20.527936" sigma="0.0"/>
<vType accel="10.201042" decel="1.958568" id="model103" length="7.0" color="1,0,0" maxSpeed="21.490418" sigma="0.0"/>
<vType accel="14.976508" decel="1.972916" id="model104" length="7.0" color="1,0,0" maxSpeed="20.975202" sigma="0.0"/>
<vType accel="11.281177" decel="1.642664" id="model105" length="7.0" color="1,0,0" maxSpeed="18.981098" sigma="0.0"/>
<vType accel="13.060220" decel="1.902720" id="model106" length="7.0" color="1,0,0" maxSpeed="21.504396" sigma="0.0"/>
<vType accel="12.897838" decel="1.694152" id="model107" length="7.0" color="1,0,0" maxSpeed="21.097529" sigma="0.0"/>
<vType accel="13.352652" decel="1.974666" id="model108" length="7.0" color="1,0,0" maxSpeed="21.306105" sigma="0.0"/>
<vType accel="12.655766" decel="1.892510" id="model109" length="7.0" color="1,0,0" maxSpeed="21.754576" sigma="0.0"/>
<vType accel="14.411309" decel="1.958691" id="model110" length="7.0" color="1,0,0" maxSpeed="21.000688" sigma="0.0"/>
<vType accel="14.106895" decel="1.522279" id="model111" length="7.0" color="1,0,0" maxSpeed="21.364814" sigma="0.0"/>
<vType accel="12.253749" decel="1.648711" id="model112" length="7.0" color="1,0,0" maxSpeed="20.133540" sigma="0.0"/>
<vType accel="10.215609" decel="1.559746" id="model113" length="7.0" color="1,0,0" maxSpeed="19.097428" sigma="0.0"/>
<vType accel="11.738030" decel="1.735047" id="model114" length="7.0" color="1,0,0" maxSpeed="18.657354" sigma="0.0"/>
<vType accel="11.792761" decel="1.504097" id="model115" length="7.0" color="1,0,0" maxSpeed="18.941557" sigma="0.0"/>
<vType accel="14.789103" decel="1.761806" id="model116" length="7.0" color="1,0,0" maxSpeed="20.882751" sigma="0.0"/>
<vType accel="13.059683" decel="1.770531" id="model117" length="7.0" color="1,0,0" maxSpeed="21.018436" sigma="0.0"/>
<vType accel="13.629838" decel="1.810866" id="model118" length="7.0" color="1,0,0" maxSpeed="20.193711" sigma="0.0"/>
<vType accel="11.603698" decel="1.954184" id="model119" length="7.0" color="1,0,0" maxSpeed="21.227105" sigma="0.0"/>
<vType accel="12.158627" decel="1.797988" id="model120" length="7.0" color="1,0,0" maxSpeed="21.102156" sigma="0.0"/>
<vType accel="11.956439" decel="1.574948" id="model121" length="7.0" color="1,0,0" maxSpeed="21.603641" sigma="0.0"/>
<vType accel="13.578194" decel="1.788640" id="model122" length="7.0" color="1,0,0" maxSpeed="20.329489" sigma="0.0"/>
<vType accel="12.902848" decel="1.873627" id="model123" length="7.0" color="1,0,0" maxSpeed="18.162102" sigma="0.0"/>
<vType accel="10.573624" decel="1.618056" id="model124" length="7.0" color="1,0,0" maxSpeed="21.402621" sigma="0.0"/>
<vType accel="11.255921" decel="1.628957" id="model125" length="7.0" color="1,0,0" maxSpeed="19.361956" sigma="0.0"/>
<vType accel="12.862679" decel="1.941529" id="model126" length="7.0" color="1,0,0" maxSpeed="19.336353" sigma="0.0"/>
<vType accel="11.558666" decel="1.999655" id="model127" length="7.0" color="1,0,0" maxSpeed="21.170948" sigma="0.0"/>
<vType accel="14.258413" decel="1.942838" id="model128" length="7.0" color="1,0,0" maxSpeed="19.301165" sigma="0.0"/>
<vType accel="10.194665" decel="1.788525" id="model129" length="7.0" color="1,0,0" maxSpeed="20.459453" sigma="0.0"/>
<vType accel="13.772838" decel="1.984091" id="model130" length="7.0" color="1,0,0" maxSpeed="20.036765" sigma="0.0"/>
<vType accel="10.148873" decel="1.704077" id="model131" length="7.0" color="1,0,0" maxSpeed="19.326650" sigma="0.0"/>
<vType accel="11.956484" decel="1.988109" id="model132" length="7.0" color="1,0,0" maxSpeed="18.278560" sigma="0.0"/>
<vType accel="12.394334" decel="1.602209" id="model133" length="7.0" color="1,0,0" maxSpeed="19.490399" sigma="0.0"/>
<vType accel="12.085095" decel="1.892686" id="model134" length="7.0" color="1,0,0" maxSpeed="21.580441" sigma="0.0"/>
<vType accel="11.299292" decel="1.715922" id="model135" length="7.0" color="1,0,0" maxSpeed="19.176367" sigma="0.0"/>
<vType accel="10.812845" decel="1.964922" id="model136" length="7.0" color="1,0,0" maxSpeed="19.947610" sigma="0.0"/>
<vType accel="13.604873" decel="1.532486" id="model137" length="7.0" color="1,0,0" maxSpeed="18.875296" sigma="0.0"/>
<vType accel="12.796819" decel="1.691504" id="model138" length="7.0" color="1,0,0" maxSpeed="21.378864" sigma="0.0"/>
<vType accel="13.779055" decel="1.845177" id="model139" length="7.0" color="1,0,0" maxSpeed="18.673434" sigma="0.0"/>
<vType accel="14.696233" decel="1.624647" id="model140" length="7.0" color="1,0,0" maxSpeed="18.221689" sigma="0.0"/>
<vType accel="10.464443" decel="1.606491" id="model141" length="7.0" color="1,0,0" maxSpeed="18.991667" sigma="0.0"/>
<vType accel="12.463411" decel="1.748422" id="model142" length="7.0" color="1,0,0" maxSpeed="20.054109" sigma="0.0"/>
<vType accel="11.661319" decel="1.867071" id="model143" length="7.0" color="1,0,0" maxSpeed="21.010323" sigma="0.0"/>
<vType accel="14.880302" decel="1.609417" id="model144" length="7.0" color="1,0,0" maxSpeed="20.630215" sigma="0.0"/>
<vType accel="11.922647" decel="1.755771" id="model145" length="7.0" color="1,0,0" maxSpeed="21.246142" sigma="0.0"/>
<vType accel="11.115438" decel="1.706857" id="model146" length="7.0" color="1,0,0" maxSpeed="20.528724" sigma="0.0"/>
<vType accel="14.110292" decel="1.609054" id="model147" length="7.0" color="1,0,0" maxSpeed="19.208640" sigma="0.0"/>
<vType accel="14.897126" decel="1.656236" id="model148" length="7.0" color="1,0,0" maxSpeed="21.880900" sigma="0.0"/>
<vType accel="14.739843" decel="1.852729" id="model149" length="7.0" color="1,0,0" maxSpeed="20.934336" sigma="0.0"/>
<vType accel="12.484217" decel="1.744981" id="model150" length="7.0" color="1,0,0" maxSpeed="20.052058" sigma="0.0"/>
<vType accel="11.192944" decel="1.723725" id="model151" length="7.0" color="1,0,0" maxSpeed="21.899959" sigma="0.0"/>
<vType accel="13.707938" decel="1.935576" id="model152" length="7.0" color="1,0,0" maxSpeed="19.189288" sigma="0.0"/>
<vType accel="11.804819" decel="1.527094" id="model153" length="7.0" color="1,0,0" maxSpeed="20.847651" sigma="0.0"/>
<vType accel="10.107612" decel="1.542493" id="model154" length="7.0" color="1,0,0" maxSpeed="20.961309" sigma="0.0"/>
<vType accel="11.264773" decel="1.899060" id="model155" length="7.0" color="1,0,0" maxSpeed="19.109254" sigma="0.0"/>
<vType accel="13.490037" decel="1.749550" id="model156" length="7.0" color="1,0,0" maxSpeed="18.290109" sigma="0.0"/>
<vType accel="11.514166" decel="1.914716" id="model157" length="7.0" color="1,0,0" maxSpeed="18.139038" sigma="0.0"/>
<vType accel="10.384495" decel="1.691562" id="model158" length="7.0" color="1,0,0" maxSpeed="21.184277" sigma="0.0"/>
<vType accel="12.044537" decel="1.943099" id="model159" length="7.0" color="1,0,0" maxSpeed="20.931368" sigma="0.0"/>
<vType accel="14.937586" decel="1.865562" id="model160" length="7.0" color="1,0,0" maxSpeed="21.467476" sigma="0.0"/>
<vType accel="11.757291" decel="1.819562" id="model161" length="7.0" color="1,0,0" maxSpeed="20.725716" sigma="0.0"/>
<vType accel="12.563368" decel="1.839569" id="model162" length="7.0" color="1,0,0" maxSpeed="19.982425" sigma="0.0"/>
<vType accel="11.493875" decel="1.780164" id="model163" length="7.0" color="1,0,0" maxSpeed="18.370315" sigma="0.0"/>
<vType accel="13.648567" decel="1.545859" id="model164" length="7.0" color="1,0,0" maxSpeed="19.092159" sigma="0.0"/>
<vType accel="14.669976" decel="1.654863" id="model165" length="7.0" color="1,0,0" maxSpeed="20.134955" sigma="0.0"/>
<vType accel="11.798781" decel="1.633101" id="model166" length="7.0" color="1,0,0" maxSpeed="20.260790" sigma="0.0"/>
<vType accel="10.687525" decel="1.802208" id="model167" length="7.0" color="1,0,0" maxSpeed="19.970802" sigma="0.0"/>
<vType accel="14.116905" decel="1.667873" id="model168" length="7.0" color="1,0,0" maxSpeed="19.857863" sigma="0.0"/>
<vType accel="10.927813" decel="1.584394" id="model169" length="7.0" color="1,0,0" maxSpeed="18.083214" sigma="0.0"/>
<vType accel="10.672775" decel="1.961154" id="model170" length="7.0" color="1,0,0" maxSpeed="18.646601" sigma="0.0"/>
<vType accel="10.167193" decel="1.722846" id="model171" length="7.0" color="1,0,0" maxSpeed="18.625528" sigma="0.0"/>
<vType accel="12.084226" decel="1.738377" id="model172" length="7.0" color="1,0,0" maxSpeed="20.230448" sigma="0.0"/>
<vType accel="10.941257" decel="1.780889" id="model173" length="7.0" color="1,0,0" maxSpeed="21.315459" sigma="0.0"/>
<vType accel="13.892223" decel="1.912525" id="model174" length="7.0" color="1,0,0" maxSpeed="20.535122" sigma="0.0"/>
<vType accel="13.983048" decel="1.735253" id="model175" length="7.0" color="1,0,0" maxSpeed="20.793469" sigma="0.0"/>
<vType accel="12.272503" decel="1.646269" id="model176" length="7.0" color="1,0,0" maxSpeed="19.857330" sigma="0.0"/>
<vType accel="11.729329" decel="1.643456" id="model177" length="7.0" color="1,0,0" maxSpeed="19.794111" sigma="0.0"/>
<vType accel="11.663507" decel="1.643565" id="model178" length="7.0" color="1,0,0" maxSpeed="21.834575" sigma="0.0"/>
<vType accel="12.069927" decel="1.763742" id="model179" length="7.0" color="1,0,0" maxSpeed="21.828041" sigma="0.0"/>
<vType accel="12.321845" decel="1.663843" id="model180" length="7.0" color="1,0,0" maxSpeed="21.341859" sigma="0.0"/>
<vType accel="12.392978" decel="1.651916" id="model181" length="7.0" color="1,0,0" maxSpeed="21.148421" sigma="0.0"/>
<vType accel="14.309146" decel="1.588409" id="model182" length="7.0" color="1,0,0" maxSpeed="21.996540" sigma="0.0"/>
<vType accel="13.806433" decel="1.520731" id="model183" length="7.0" color="1,0,0" maxSpeed="18.428457" sigma="0.0"/>
<vType accel="13.485278" decel="1.575328" id="model184" length="7.0" color="1,0,0" maxSpeed="21.228908" sigma="0.0"/>
<vType accel="12.201167" decel="1.536093" id="model185" length="7.0" color="1,0,0" maxSpeed="20.204561" sigma="0.0"/>
<vType accel="13.107125" decel="1.915256" id="model186" length="7.0" color="1,0,0" maxSpeed="18.911310" sigma="0.0"/>
<vType accel="11.596295" decel="1.833337" id="model187" length="7.0" color="1,0,0" maxSpeed="19.684997" sigma="0.0"/>
<vType accel="13.378382" decel="1.746780" id="model188" length="7.0" color="1,0,0" maxSpeed="21.404826" sigma="0.0"/>
<vType accel="13.232486" decel="1.596154" id="model189" length="7.0" color="1,0,0" maxSpeed="21.300953" sigma="0.0"/>
<vType accel="12.663728" decel="1.816760" id="model190" length="7.0" color="1,0,0" maxSpeed="21.318450" sigma="0.0"/>
<vType accel="14.871704" decel="1.713093" id="model191" length="7.0" color="1,0,0" maxSpeed="19.800633" sigma="0.0"/>
<vType accel="10.820434" decel="1.671216" id="model192" length="7.0" color="1,0,0" maxSpeed="21.110255" sigma="0.0"/>
<vType accel="14.484343" decel="1.529895" id="model193" length="7.0" color="1,0,0" maxSpeed="20.423253" sigma="0.0"/>
<vType accel="11.499715" decel="1.612010" id="model194" length="7.0" color="1,0,0" maxSpeed="20.821249" sigma="0.0"/>
<vType accel="11.319091" decel="1.896931" id="model195" length="7.0" color="1,0,0" maxSpeed="18.193973" sigma="0.0"/>
<vType accel="12.986960" decel="1.583871" id="model196" length="7.0" color="1,0,0" maxSpeed="18.666116" sigma="0.0"/>
<vType accel="12.241604" decel="1.969837" id="model197" length="7.0" color="1,0,0" maxSpeed="21.312725" sigma="0.0"/>
<vType accel="12.104221" decel="1.679246" id="model198" length="7.0" color="1,0,0" maxSpeed="18.252641" sigma="0.0"/>
<vType accel="11.222403" decel="1.665037" id="model199" length="7.0" color="1,0,0" maxSpeed="21.942917" sigma="0.0"/>

    <route id="r0" edges="-46331812 31649598#0 31649598#1"/>
    <route id="r1" edges="-31581244#0 46331812"/>
    <route id="r2" edges="-31649598#1 -31649598#0 31581244#0"/>
<vehicle depart="15" departLane="0" id="veh0" route="r0" type="model147"/>
<vehicle depart="30" departLane="0" id="veh1" route="r0" type="model186"/>
<vehicle depart="45" departLane="0" id="veh2" route="r0" type="model152"/>
<vehicle depart="60" departLane="0" id="veh3" route="r0" type="model132"/>
<vehicle depart="75" departLane="0" id="veh4" route="r0" type="model182"/>
<vehicle depart="90" departLane="0" id="veh5" route="r0" type="model52"/>
<vehicle depart="105" departLane="0" id="veh6" route="r0" type="model194"/>
<vehicle depart="120" departLane="0" id="veh7" route="r0" type="model78"/>
<vehicle depart="135" departLane="0" id="veh8" route="r0" type="model140"/>
<vehicle depart="150" departLane="0" id="veh9" route="r0" type="model131"/>
<vehicle depart="165" departLane="0" id="veh10" route="r0" type="model169"/>
<vehicle depart="180" departLane="0" id="veh11" route="r0" type="model23"/>
<vehicle depart="195" departLane="0" id="veh12" route="r0" type="model107"/>
<vehicle depart="210" departLane="0" id="veh13" route="r0" type="model32"/>
<vehicle depart="225" departLane="0" id="veh14" route="r0" type="model22"/>
<vehicle depart="240" departLane="0" id="veh15" route="r0" type="model33"/>
<vehicle depart="255" departLane="0" id="veh16" route="r0" type="model95"/>
<vehicle depart="270" departLane="0" id="veh17" route="r0" type="model159"/>
<vehicle depart="285" departLane="0" id="veh18" route="r0" type="model33"/>
<vehicle depart="300" departLane="0" id="veh19" route="r0" type="model2"/>
<vehicle depart="315" departLane="0" id="veh20" route="r0" type="model74"/>
<vehicle depart="330" departLane="0" id="veh21" route="r0" type="model173"/>
<vehicle depart="345" departLane="0" id="veh22" route="r0" type="model47"/>
<vehicle depart="360" departLane="0" id="veh23" route="r0" type="model6"/>
<vehicle depart="375" departLane="0" id="veh24" route="r0" type="model59"/>
<vehicle depart="390" departLane="0" id="veh25" route="r0" type="model188"/>
<vehicle depart="405" departLane="0" id="veh26" route="r0" type="model78"/>
<vehicle depart="420" departLane="0" id="veh27" route="r0" type="model139"/>
<vehicle depart="435" departLane="0" id="veh28" route="r0" type="model26"/>
<vehicle depart="450" departLane="0" id="veh29" route="r0" type="model80"/>
</routes>
