<additional>
    <inductionLoop id="a_start" lane="8028548_0" pos="-100" freq="90" file="zorilor.out" friendlyPos="x"/>
    <inductionLoop id="a_end" lane="7932203#0_0" pos="100" freq="90" file="zorilor.out" friendlyPos="x"/>
    <inductionLoop id="b_start" lane="-7932203#0_0" pos="-100" freq="90" file="zorilor.out" friendlyPos="x"/>
    <inductionLoop id="b_end" lane="-8028548_0" pos="100" freq="90" file="zorilor.out" friendlyPos="x"/>
    <inductionLoop id="c0_start" lane="55557174_0" pos="-100" freq="90" file="zorilor.out" friendlyPos="x"/>
    <inductionLoop id="c0_end" lane="10510908#0_0" pos="100" freq="90" file="zorilor.out" friendlyPos="x"/>
    <inductionLoop id="c1_start" lane="55557174_1" pos="-100" freq="90" file="zorilor.out" friendlyPos="x"/>
    <inductionLoop id="c1_end" lane="10510908#0_1" pos="100" freq="90" file="zorilor.out" friendlyPos="x"/>
    <inductionLoop id="d0_start" lane="-10510908#0_0" pos="-100" freq="90" file="zorilor.out" friendlyPos="x"/>
    <inductionLoop id="d0_end" lane="-55557174_0" pos="100" freq="90" file="zorilor.out" friendlyPos="x"/>
    <inductionLoop id="d1_start" lane="-10510908#0_1" pos="-100" freq="90" file="zorilor.out" friendlyPos="x"/>
    <inductionLoop id="d1_end" lane="-55557174_1" pos="100" freq="90" file="zorilor.out" friendlyPos="x"/>
</additional>