<?xml version="1.0" encoding="UTF-8"?>

<!-- generated on Sat Jun 18 15:06:11 2016 by SUMO netconvert Version 0.25.0
<?xml version="1.0" encoding="UTF-8"?>

<configuration xmlns:xsi="http://www.w3.org/2001/XMLSchema-instance" xsi:noNamespaceSchemaLocation="http://sumo.dlr.de/xsd/netconvertConfiguration.xsd">

    <input>
        <type-files value="/usr/local/Cellar/sumo/0.25.0/data/typemap/osmNetconvert.typ.xml"/>
        <osm-files value="zorilor.osm"/>
    </input>

    <output>
        <output-file value="eichstaett.net.xml"/>
    </output>

    <projection>
        <proj.utm value="true"/>
    </projection>

    <processing>
        <roundabouts.guess value="true"/>
    </processing>

</configuration>
-->

<net version="0.25" xmlns:xsi="http://www.w3.org/2001/XMLSchema-instance" xsi:noNamespaceSchemaLocation="http://sumo.dlr.de/xsd/net_file.xsd">

    <location netOffset="-696493.69,-5180725.13" convBoundary="0.00,0.00,1740.94,1044.91" origBoundary="23.572904,46.750893,23.595592,46.760280" projParameter="+proj=utm +zone=34 +ellps=WGS84 +datum=WGS84 +units=m +no_defs"/>

    <type id="highway.bridleway" priority="1" numLanes="1" speed="2.78" allow="pedestrian" oneway="1" width="2.00"/>
    <type id="highway.bus_guideway" priority="1" numLanes="1" speed="8.33" allow="bus" oneway="1"/>
    <type id="highway.cycleway" priority="1" numLanes="1" speed="5.56" allow="bicycle" oneway="0" width="1.00"/>
    <type id="highway.footway" priority="1" numLanes="1" speed="8.33" allow="pedestrian" oneway="1" width="2.00"/>
    <type id="highway.ford" priority="1" numLanes="1" speed="2.78" allow="army" oneway="0"/>
    <type id="highway.living_street" priority="3" numLanes="1" speed="2.78" disallow="tram rail_urban rail rail_electric ship" oneway="0"/>
    <type id="highway.motorway" priority="13" numLanes="2" speed="44.44" allow="private emergency authority army vip passenger hov taxi bus coach delivery truck trailer motorcycle evehicle custom1 custom2" oneway="1"/>
    <type id="highway.motorway_link" priority="12" numLanes="1" speed="22.22" allow="private emergency authority army vip passenger hov taxi bus coach delivery truck trailer motorcycle evehicle custom1 custom2" oneway="1"/>
    <type id="highway.path" priority="1" numLanes="1" speed="2.78" allow="bicycle pedestrian" oneway="1" width="2.00"/>
    <type id="highway.pedestrian" priority="1" numLanes="1" speed="8.33" allow="pedestrian" oneway="1" width="2.00"/>
    <type id="highway.primary" priority="9" numLanes="2" speed="27.78" disallow="tram rail_urban rail rail_electric ship" oneway="0"/>
    <type id="highway.primary_link" priority="8" numLanes="1" speed="22.22" disallow="tram rail_urban rail rail_electric ship" oneway="0"/>
    <type id="highway.raceway" priority="14" numLanes="2" speed="83.33" allow="vip" oneway="0"/>
    <type id="highway.residential" priority="4" numLanes="1" speed="13.89" disallow="tram rail_urban rail rail_electric ship" oneway="0"/>
    <type id="highway.secondary" priority="7" numLanes="2" speed="27.78" disallow="tram rail_urban rail rail_electric ship" oneway="0"/>
    <type id="highway.secondary_link" priority="6" numLanes="1" speed="22.22" disallow="tram rail_urban rail rail_electric ship" oneway="0"/>
    <type id="highway.service" priority="2" numLanes="1" speed="5.56" allow="delivery bicycle pedestrian" oneway="0"/>
    <type id="highway.services" priority="1" numLanes="1" speed="8.33" disallow="tram rail_urban rail rail_electric ship" oneway="0"/>
    <type id="highway.stairs" priority="1" numLanes="1" speed="1.39" allow="pedestrian" oneway="1" width="2.00"/>
    <type id="highway.step" priority="1" numLanes="1" speed="1.39" allow="pedestrian" oneway="1" width="2.00"/>
    <type id="highway.steps" priority="1" numLanes="1" speed="1.39" allow="pedestrian" oneway="1" width="2.00"/>
    <type id="highway.tertiary" priority="6" numLanes="1" speed="22.22" disallow="tram rail_urban rail rail_electric ship" oneway="0"/>
    <type id="highway.tertiary_link" priority="5" numLanes="1" speed="22.22" disallow="tram rail_urban rail rail_electric ship" oneway="0"/>
    <type id="highway.track" priority="1" numLanes="1" speed="5.56" disallow="tram rail_urban rail rail_electric ship" oneway="0"/>
    <type id="highway.trunk" priority="11" numLanes="2" speed="27.78" disallow="tram rail_urban rail rail_electric bicycle pedestrian ship" oneway="0"/>
    <type id="highway.trunk_link" priority="10" numLanes="1" speed="22.22" disallow="tram rail_urban rail rail_electric bicycle pedestrian ship" oneway="0"/>
    <type id="highway.unclassified" priority="5" numLanes="1" speed="13.89" disallow="tram rail_urban rail rail_electric ship" oneway="0"/>
    <type id="highway.unsurfaced" priority="1" numLanes="1" speed="8.33" disallow="tram rail_urban rail rail_electric ship" oneway="0"/>
    <type id="railway.light_rail" priority="15" numLanes="1" speed="27.78" allow="rail_urban" oneway="1"/>
    <type id="railway.preserved" priority="15" numLanes="1" speed="27.78" allow="rail" oneway="1"/>
    <type id="railway.rail" priority="15" numLanes="1" speed="83.33" allow="rail rail_electric" oneway="1"/>
    <type id="railway.subway" priority="15" numLanes="1" speed="27.78" allow="rail_urban" oneway="1"/>
    <type id="railway.tram" priority="15" numLanes="1" speed="13.89" allow="tram" oneway="1"/>

    <edge id=":1449642198_0" function="internal">
        <lane id=":1449642198_0_0" index="0" disallow="tram rail_urban rail rail_electric ship" speed="13.89" length="4.82" shape="1226.49,277.31 1225.23,276.51 1224.80,275.69 1225.20,274.86 1226.42,274.01"/>
    </edge>
    <edge id=":1805096580_0" function="internal">
        <lane id=":1805096580_0_0" index="0" disallow="tram rail_urban rail rail_electric ship" speed="13.89" length="4.82" shape="1192.47,197.89 1193.55,196.87 1194.44,196.65 1195.16,197.24 1195.69,198.63"/>
    </edge>
    <edge id=":1805096627_0" function="internal">
        <lane id=":1805096627_0_0" index="0" disallow="tram rail_urban rail rail_electric ship" speed="8.33" length="9.43" shape="1147.97,352.38 1138.89,349.81"/>
    </edge>
    <edge id=":1805096627_1" function="internal">
        <lane id=":1805096627_1_0" index="0" disallow="tram rail_urban rail rail_electric ship" speed="11.11" length="10.60" shape="1147.97,352.38 1145.30,351.17 1143.72,349.41 1143.21,347.09 1143.78,344.22"/>
    </edge>
    <edge id=":1805096627_2" function="internal">
        <lane id=":1805096627_2_0" index="0" disallow="tram rail_urban rail rail_electric ship" speed="8.33" length="4.82" shape="1147.97,352.38 1147.01,351.25 1146.84,350.34 1147.47,349.66 1148.89,349.22"/>
    </edge>
    <edge id=":1805096627_3" function="internal">
        <lane id=":1805096627_3_0" index="0" disallow="tram rail_urban rail rail_electric ship" speed="11.11" length="5.07" shape="1146.89,345.31 1146.62,346.69 1146.86,347.79 1147.62,348.64 1148.89,349.22"/>
    </edge>
    <edge id=":1805096627_4" function="internal">
        <lane id=":1805096627_4_0" index="0" disallow="tram rail_urban rail rail_electric ship" speed="11.11" length="10.30" shape="1146.89,345.31 1145.58,347.88 1143.82,349.49 1141.58,350.13 1138.89,349.81"/>
    </edge>
    <edge id=":1805096627_5" function="internal">
        <lane id=":1805096627_5_0" index="0" disallow="tram rail_urban rail rail_electric ship" speed="13.89" length="4.82" shape="1146.89,345.31 1145.70,346.21 1144.79,346.32 1144.15,345.66 1143.78,344.22"/>
    </edge>
    <edge id=":1805096627_6" function="internal">
        <lane id=":1805096627_6_0" index="0" disallow="tram rail_urban rail rail_electric ship" speed="11.11" length="5.25" shape="1139.77,346.62 1141.10,346.77 1142.21,346.42 1143.10,345.57 1143.78,344.22"/>
    </edge>
    <edge id=":1805096627_7" function="internal">
        <lane id=":1805096627_7_0" index="0" disallow="tram rail_urban rail rail_electric ship" speed="8.33" length="9.49" shape="1139.77,346.62 1148.89,349.22"/>
    </edge>
    <edge id=":1805096627_8" function="internal">
        <lane id=":1805096627_8_0" index="0" disallow="tram rail_urban rail rail_electric ship" speed="8.33" length="4.82" shape="1139.77,346.62 1140.74,347.75 1140.92,348.65 1140.30,349.34 1138.89,349.81"/>
    </edge>
    <edge id=":1805096645_0" function="internal">
        <lane id=":1805096645_0_0" index="0" disallow="tram rail_urban rail rail_electric ship" speed="13.89" length="4.82" shape="1356.34,762.74 1355.57,764.01 1354.76,764.46 1353.92,764.08 1353.05,762.88"/>
    </edge>
    <edge id=":1805096653_0" function="internal">
        <lane id=":1805096653_0_0" index="0" disallow="tram rail_urban rail rail_electric ship" speed="13.89" length="4.82" shape="834.53,59.59 834.48,58.11 834.91,57.29 835.82,57.15 837.21,57.68"/>
    </edge>
    <edge id=":1805096821_0" function="internal">
        <lane id=":1805096821_0_0" index="0" disallow="tram rail_urban rail rail_electric ship" speed="8.33" length="10.45" shape="1071.05,242.17 1069.55,239.53 1068.47,237.63 1067.37,235.74 1065.83,233.13"/>
    </edge>
    <edge id=":1805096821_1" function="internal">
        <lane id=":1805096821_1_0" index="0" disallow="tram rail_urban rail rail_electric ship" speed="11.11" length="13.64" shape="1071.05,242.17 1069.51,238.37 1069.83,235.67 1072.03,234.06 1076.10,233.55"/>
    </edge>
    <edge id=":1805096821_2" function="internal">
        <lane id=":1805096821_2_0" index="0" disallow="tram rail_urban rail rail_electric ship" speed="8.33" length="4.82" shape="1071.05,242.17 1071.15,240.69 1071.67,239.92 1072.59,239.87 1073.92,240.54"/>
    </edge>
    <edge id=":1805096821_3" function="internal">
        <lane id=":1805096821_3_0" index="0" disallow="tram rail_urban rail rail_electric ship" speed="11.11" length="5.83" shape="1076.07,236.85 1074.34,237.07 1073.40,237.76 1073.26,238.91 1073.92,240.54"/>
    </edge>
    <edge id=":1805096821_4" function="internal">
        <lane id=":1805096821_4_0" index="0" disallow="tram rail_urban rail rail_electric ship" speed="11.11" length="11.34" shape="1076.07,236.85 1072.41,236.60 1069.48,235.89 1067.28,234.74 1065.83,233.13"/>
    </edge>
    <edge id=":1805096821_5" function="internal">
        <lane id=":1805096821_5_0" index="0" disallow="tram rail_urban rail rail_electric ship" speed="13.89" length="4.82" shape="1076.07,236.85 1074.84,236.02 1074.43,235.19 1074.85,234.37 1076.10,233.55"/>
    </edge>
    <edge id=":1805096821_6" function="internal">
        <lane id=":1805096821_6_0" index="0" disallow="tram rail_urban rail rail_electric ship" speed="11.11" length="7.98" shape="1068.66,231.44 1069.59,232.35 1071.14,233.00 1073.30,233.40 1076.10,233.55"/>
    </edge>
    <edge id=":1805096821_7" function="internal">
        <lane id=":1805096821_7_0" index="0" disallow="tram rail_urban rail rail_electric ship" speed="8.33" length="10.50" shape="1068.66,231.44 1070.21,234.07 1071.32,235.97 1072.41,237.89 1073.92,240.54"/>
    </edge>
    <edge id=":1805096821_8" function="internal">
        <lane id=":1805096821_8_0" index="0" disallow="tram rail_urban rail rail_electric ship" speed="8.33" length="4.82" shape="1068.66,231.44 1068.59,232.93 1068.09,233.70 1067.17,233.77 1065.83,233.13"/>
    </edge>
    <edge id=":1805096836_0" function="internal">
        <lane id=":1805096836_0_0" index="0" disallow="tram rail_urban rail rail_electric ship" speed="13.89" length="5.04" shape="1156.33,95.22 1154.94,95.26 1153.91,95.73 1153.25,96.65 1152.94,98.01"/>
    </edge>
    <edge id=":1805096836_1" function="internal">
        <lane id=":1805096836_1_0" index="0" disallow="tram rail_urban rail rail_electric ship" speed="13.89" length="9.92" shape="1156.33,95.22 1146.51,93.88"/>
    </edge>
    <edge id=":1805096836_2" function="internal">
        <lane id=":1805096836_2_0" index="0" disallow="tram rail_urban rail rail_electric ship" speed="13.89" length="10.62" shape="1156.33,95.22 1153.56,94.48 1151.65,93.02 1150.62,90.83 1150.46,87.91"/>
    </edge>
    <edge id=":1805096836_3" function="internal">
        <lane id=":1805096836_3_0" index="0" disallow="tram rail_urban rail rail_electric ship" speed="13.89" length="4.82" shape="1156.33,95.22 1155.20,94.26 1154.89,93.39 1155.39,92.62 1156.72,91.95"/>
    </edge>
    <edge id=":1805096836_4" function="internal">
        <lane id=":1805096836_4_0" index="0" disallow="tram rail_urban rail rail_electric ship" speed="13.89" length="5.42" shape="1153.75,88.19 1153.83,89.69 1154.35,90.82 1155.31,91.57 1156.72,91.95"/>
    </edge>
    <edge id=":1805096836_5" function="internal">
        <lane id=":1805096836_5_0" index="0" disallow="tram rail_urban rail rail_electric ship" speed="13.89" length="9.85" shape="1153.75,88.19 1152.94,98.01"/>
    </edge>
    <edge id=":1805096836_6" function="internal">
        <lane id=":1805096836_6_0" index="0" disallow="tram rail_urban rail rail_electric ship" speed="13.89" length="5.34" shape="1153.75,88.19 1153.08,91.07 1151.65,92.98"/>
    </edge>
    <edge id=":1805096836_7" function="internal">
        <lane id=":1805096836_7_0" index="0" disallow="tram rail_urban rail rail_electric ship" speed="13.89" length="2.41" shape="1153.75,88.19 1152.82,89.35 1151.97,89.69"/>
    </edge>
    <edge id=":1805096836_16" function="internal">
        <lane id=":1805096836_16_0" index="0" speed="13.89" length="5.34" shape="1151.65,92.98 1149.46,93.91 1146.51,93.88"/>
    </edge>
    <edge id=":1805096836_17" function="internal">
        <lane id=":1805096836_17_0" index="0" speed="13.89" length="2.41" shape="1151.97,89.69 1151.18,89.21 1150.46,87.91"/>
    </edge>
    <edge id=":1805096836_8" function="internal">
        <lane id=":1805096836_8_0" index="0" disallow="tram rail_urban rail rail_electric ship" speed="13.89" length="5.08" shape="1147.01,90.62 1148.42,90.64 1149.46,90.19 1150.15,89.28 1150.46,87.91"/>
    </edge>
    <edge id=":1805096836_9" function="internal">
        <lane id=":1805096836_9_0" index="0" disallow="tram rail_urban rail rail_electric ship" speed="13.89" length="9.79" shape="1147.01,90.62 1156.72,91.95"/>
    </edge>
    <edge id=":1805096836_10" function="internal">
        <lane id=":1805096836_10_0" index="0" disallow="tram rail_urban rail rail_electric ship" speed="13.89" length="10.63" shape="1147.01,90.62 1149.80,91.46 1151.72,92.97 1152.76,95.15 1152.94,98.01"/>
    </edge>
    <edge id=":1805096836_11" function="internal">
        <lane id=":1805096836_11_0" index="0" disallow="tram rail_urban rail rail_electric ship" speed="13.89" length="4.82" shape="1147.01,90.62 1148.11,91.63 1148.39,92.50 1147.86,93.26 1146.51,93.88"/>
    </edge>
    <edge id=":1805096836_12" function="internal">
        <lane id=":1805096836_12_0" index="0" disallow="tram rail_urban rail rail_electric ship" speed="13.89" length="5.59" shape="1149.65,97.74 1149.55,96.25 1149.00,95.11 1147.98,94.32 1146.51,93.88"/>
    </edge>
    <edge id=":1805096836_13" function="internal">
        <lane id=":1805096836_13_0" index="0" disallow="tram rail_urban rail rail_electric ship" speed="13.89" length="9.86" shape="1149.65,97.74 1150.46,87.91"/>
    </edge>
    <edge id=":1805096836_14" function="internal">
        <lane id=":1805096836_14_0" index="0" disallow="tram rail_urban rail rail_electric ship" speed="13.89" length="5.26" shape="1149.65,97.74 1150.29,94.92 1151.68,93.01"/>
    </edge>
    <edge id=":1805096836_15" function="internal">
        <lane id=":1805096836_15_0" index="0" disallow="tram rail_urban rail rail_electric ship" speed="13.89" length="2.41" shape="1149.65,97.74 1150.57,96.57 1151.43,96.23"/>
    </edge>
    <edge id=":1805096836_18" function="internal">
        <lane id=":1805096836_18_0" index="0" speed="13.89" length="5.26" shape="1151.68,93.01 1153.82,92.02 1156.72,91.95"/>
    </edge>
    <edge id=":1805096836_19" function="internal">
        <lane id=":1805096836_19_0" index="0" speed="13.89" length="2.41" shape="1151.43,96.23 1152.22,96.71 1152.94,98.01"/>
    </edge>
    <edge id=":1805096856_0" function="internal">
        <lane id=":1805096856_0_0" index="0" disallow="tram rail_urban rail rail_electric ship" speed="13.89" length="4.82" shape="1157.12,9.44 1158.04,8.27 1158.90,7.93 1159.69,8.41 1160.40,9.72"/>
    </edge>
    <edge id=":1805096859_0" function="internal">
        <lane id=":1805096859_0_0" index="0" disallow="tram rail_urban rail rail_electric ship" speed="13.89" length="4.82" shape="1310.72,110.10 1311.86,111.07 1312.17,111.93 1311.66,112.70 1310.34,113.38"/>
    </edge>
    <edge id=":1805096862_0" function="internal">
        <lane id=":1805096862_0_0" index="0" disallow="tram rail_urban rail rail_electric ship" speed="13.89" length="4.82" shape="839.44,53.05 838.04,52.56 837.44,51.86 837.63,50.96 838.63,49.85"/>
    </edge>
    <edge id=":1805096874_0" function="internal">
        <lane id=":1805096874_0_0" index="0" disallow="tram rail_urban rail rail_electric ship" speed="27.78" length="9.36" shape="1054.67,457.97 1045.81,455.05"/>
        <lane id=":1805096874_0_1" index="1" disallow="tram rail_urban rail rail_electric ship" speed="27.78" length="9.36" shape="1055.73,454.84 1046.81,451.91"/>
    </edge>
    <edge id=":1805096874_2" function="internal">
        <lane id=":1805096874_2_0" index="0" disallow="tram rail_urban rail rail_electric ship" speed="20.84" length="4.20" shape="1055.73,454.84 1053.48,453.44 1052.75,452.07"/>
    </edge>
    <edge id=":1805096874_3" function="internal">
        <lane id=":1805096874_3_0" index="0" disallow="tram rail_urban rail rail_electric ship" speed="27.78" length="2.41" shape="1055.73,454.84 1054.82,453.66 1054.69,452.75"/>
    </edge>
    <edge id=":1805096874_11" function="internal">
        <lane id=":1805096874_11_0" index="0" speed="20.84" length="8.77" shape="1052.75,452.07 1052.22,451.08 1051.95,447.77 1052.67,443.51"/>
    </edge>
    <edge id=":1805096874_12" function="internal">
        <lane id=":1805096874_12_0" index="0" speed="27.78" length="2.41" shape="1054.69,452.75 1055.35,452.10 1056.79,451.72"/>
    </edge>
    <edge id=":1805096874_4" function="internal">
        <lane id=":1805096874_4_0" index="0" disallow="tram rail_urban rail rail_electric ship" speed="20.84" length="5.27" shape="1055.87,444.32 1055.67,445.83 1055.94,447.05 1056.66,447.97 1057.84,448.59"/>
    </edge>
    <edge id=":1805096874_5" function="internal">
        <lane id=":1805096874_5_0" index="0" disallow="tram rail_urban rail rail_electric ship" speed="20.84" length="13.50" shape="1055.87,444.32 1054.37,448.43 1052.36,451.07 1049.84,452.23 1046.81,451.91"/>
    </edge>
    <edge id=":1805096874_6" function="internal">
        <lane id=":1805096874_6_0" index="0" disallow="tram rail_urban rail rail_electric ship" speed="13.89" length="4.82" shape="1055.87,444.32 1054.76,445.32 1053.86,445.51 1053.16,444.91 1052.67,443.51"/>
    </edge>
    <edge id=":1805096874_7" function="internal">
        <lane id=":1805096874_7_0" index="0" disallow="tram rail_urban rail rail_electric ship" speed="20.84" length="5.07" shape="1048.83,445.63 1050.21,445.86 1051.31,445.58 1052.13,444.80 1052.67,443.51"/>
    </edge>
    <edge id=":1805096874_8" function="internal">
        <lane id=":1805096874_8_0" index="0" disallow="tram rail_urban rail rail_electric ship" speed="27.78" length="9.46" shape="1048.83,445.63 1057.84,448.59"/>
        <lane id=":1805096874_8_1" index="1" disallow="tram rail_urban rail rail_electric ship" speed="27.78" length="9.46" shape="1047.82,448.77 1056.79,451.72"/>
    </edge>
    <edge id=":1805096874_10" function="internal">
        <lane id=":1805096874_10_0" index="0" disallow="tram rail_urban rail rail_electric ship" speed="27.78" length="2.41" shape="1047.82,448.77 1048.75,449.93 1048.89,450.84"/>
    </edge>
    <edge id=":1805096874_13" function="internal">
        <lane id=":1805096874_13_0" index="0" speed="27.78" length="2.41" shape="1048.89,450.84 1048.24,451.50 1046.81,451.91"/>
    </edge>
    <edge id=":1805096901_0" function="internal">
        <lane id=":1805096901_0_0" index="0" disallow="tram rail_urban rail rail_electric ship" speed="8.33" length="8.57" shape="1244.77,453.12 1238.30,458.74"/>
    </edge>
    <edge id=":1805096901_1" function="internal">
        <lane id=":1805096901_1_0" index="0" disallow="tram rail_urban rail rail_electric ship" speed="11.11" length="9.86" shape="1244.77,453.12 1242.47,454.29 1240.22,454.51 1238.04,453.77 1235.91,452.07"/>
    </edge>
    <edge id=":1805096901_2" function="internal">
        <lane id=":1805096901_2_0" index="0" disallow="tram rail_urban rail rail_electric ship" speed="8.33" length="4.82" shape="1244.77,453.12 1243.28,453.16 1242.47,452.73 1242.33,451.82 1242.86,450.43"/>
    </edge>
    <edge id=":1805096901_3" function="internal">
        <lane id=":1805096901_3_0" index="0" disallow="tram rail_urban rail rail_electric ship" speed="11.11" length="5.11" shape="1238.29,449.78 1239.41,450.69 1240.54,451.10 1241.69,451.01 1242.86,450.43"/>
    </edge>
    <edge id=":1805096901_4" function="internal">
        <lane id=":1805096901_4_0" index="0" disallow="tram rail_urban rail rail_electric ship" speed="11.11" length="10.13" shape="1238.29,449.78 1239.91,452.02 1240.45,454.26 1239.91,456.50 1238.30,458.74"/>
    </edge>
    <edge id=":1805096901_5" function="internal">
        <lane id=":1805096901_5_0" index="0" disallow="tram rail_urban rail rail_electric ship" speed="13.89" length="4.82" shape="1238.29,449.78 1238.55,451.24 1238.25,452.11 1237.36,452.39 1235.91,452.07"/>
    </edge>
    <edge id=":1805096901_6" function="internal">
        <lane id=":1805096901_6_0" index="0" disallow="tram rail_urban rail rail_electric ship" speed="11.11" length="4.95" shape="1235.92,456.45 1236.71,455.35 1236.97,454.26 1236.70,453.16 1235.91,452.07"/>
    </edge>
    <edge id=":1805096901_7" function="internal">
        <lane id=":1805096901_7_0" index="0" disallow="tram rail_urban rail rail_electric ship" speed="8.33" length="9.19" shape="1235.92,456.45 1242.86,450.43"/>
    </edge>
    <edge id=":1805096901_8" function="internal">
        <lane id=":1805096901_8_0" index="0" disallow="tram rail_urban rail rail_electric ship" speed="8.33" length="4.82" shape="1235.92,456.45 1237.37,456.13 1238.25,456.40 1238.56,457.27 1238.30,458.74"/>
    </edge>
    <edge id=":2122707890_0" function="internal">
        <lane id=":2122707890_0_0" index="0" disallow="tram rail_urban rail rail_electric ship" speed="13.89" length="9.58" shape="574.27,519.17 564.96,516.90"/>
    </edge>
    <edge id=":2122707890_1" function="internal">
        <lane id=":2122707890_1_0" index="0" disallow="tram rail_urban rail rail_electric ship" speed="13.89" length="5.32" shape="574.27,519.17 571.63,518.13 569.95,516.50 569.91,516.36"/>
    </edge>
    <edge id=":2122707890_2" function="internal">
        <lane id=":2122707890_2_0" index="0" disallow="tram rail_urban rail rail_electric ship" speed="13.89" length="2.41" shape="574.27,519.17 573.25,518.08 573.04,517.18"/>
    </edge>
    <edge id=":2122707890_9" function="internal">
        <lane id=":2122707890_9_0" index="0" speed="13.89" length="5.04" shape="569.91,516.36 569.25,514.27 569.51,511.43"/>
    </edge>
    <edge id=":2122707890_10" function="internal">
        <lane id=":2122707890_10_0" index="0" speed="13.89" length="2.41" shape="573.04,517.18 573.63,516.47 575.02,515.95"/>
    </edge>
    <edge id=":2122707890_3" function="internal">
        <lane id=":2122707890_3_0" index="0" disallow="tram rail_urban rail rail_electric ship" speed="13.89" length="5.03" shape="572.72,512.19 572.59,513.57 572.93,514.66 573.74,515.45 575.02,515.95"/>
    </edge>
    <edge id=":2122707890_4" function="internal">
        <lane id=":2122707890_4_0" index="0" disallow="tram rail_urban rail rail_electric ship" speed="13.89" length="10.39" shape="572.72,512.19 571.68,514.85 570.03,516.52 567.79,517.20 564.96,516.90"/>
    </edge>
    <edge id=":2122707890_5" function="internal">
        <lane id=":2122707890_5_0" index="0" disallow="tram rail_urban rail rail_electric ship" speed="13.89" length="4.82" shape="572.72,512.19 571.63,513.21 570.73,513.42 570.03,512.82 569.51,511.43"/>
    </edge>
    <edge id=":2122707890_6" function="internal">
        <lane id=":2122707890_6_0" index="0" disallow="tram rail_urban rail rail_electric ship" speed="13.89" length="5.02" shape="565.76,513.70 567.13,513.85 568.21,513.52 569.01,512.71 569.51,511.43"/>
    </edge>
    <edge id=":2122707890_7" function="internal">
        <lane id=":2122707890_7_0" index="0" disallow="tram rail_urban rail rail_electric ship" speed="13.89" length="9.53" shape="565.76,513.70 575.02,515.95"/>
    </edge>
    <edge id=":2122707890_8" function="internal">
        <lane id=":2122707890_8_0" index="0" disallow="tram rail_urban rail rail_electric ship" speed="13.89" length="2.41" shape="565.76,513.70 566.76,514.81 566.96,515.71"/>
    </edge>
    <edge id=":2122707890_11" function="internal">
        <lane id=":2122707890_11_0" index="0" speed="13.89" length="2.41" shape="566.96,515.71 566.36,516.41 564.96,516.90"/>
    </edge>
    <edge id=":2123754169_0" function="internal">
        <lane id=":2123754169_0_0" index="0" disallow="tram rail_urban rail rail_electric ship" speed="13.89" length="4.94" shape="430.69,463.03 431.72,462.51 432.52,461.70 433.11,460.61 433.46,459.24"/>
    </edge>
    <edge id=":2123754169_1" function="internal">
        <lane id=":2123754169_1_0" index="0" disallow="tram rail_urban rail rail_electric ship" speed="13.89" length="5.21" shape="430.69,463.03 435.90,462.88"/>
    </edge>
    <edge id=":2123754171_0" function="internal">
        <lane id=":2123754171_0_0" index="0" disallow="tram rail_urban rail rail_electric ship" speed="13.89" length="5.34" shape="440.15,460.42 440.21,462.00 440.54,463.31 441.15,464.37 442.03,465.15"/>
    </edge>
    <edge id=":2123754171_1" function="internal">
        <lane id=":2123754171_1_0" index="0" disallow="tram rail_urban rail rail_electric ship" speed="13.89" length="5.77" shape="436.66,463.06 442.03,465.15"/>
    </edge>
    <edge id=":2123754175_0" function="internal">
        <lane id=":2123754175_0_0" index="0" disallow="tram rail_urban rail rail_electric ship" speed="13.89" length="5.43" shape="417.93,468.61 419.54,468.81 420.92,468.70 422.07,468.26 422.99,467.51"/>
    </edge>
    <edge id=":2123754175_1" function="internal">
        <lane id=":2123754175_1_0" index="0" disallow="tram rail_urban rail rail_electric ship" speed="13.89" length="5.91" shape="419.87,472.52 422.99,467.51"/>
    </edge>
    <edge id=":2123754176_0" function="internal">
        <lane id=":2123754176_0_0" index="0" disallow="tram rail_urban rail rail_electric ship" speed="13.89" length="0.53" shape="444.00,466.42 444.39,466.77"/>
    </edge>
    <edge id=":2123754182_0" function="internal">
        <lane id=":2123754182_0_0" index="0" disallow="tram rail_urban rail rail_electric ship" speed="13.89" length="5.18" shape="419.21,480.23 418.84,479.04 418.12,478.10 417.06,477.41 415.65,476.96"/>
    </edge>
    <edge id=":2123754182_1" function="internal">
        <lane id=":2123754182_1_0" index="0" disallow="tram rail_urban rail rail_electric ship" speed="13.89" length="5.76" shape="419.21,480.23 419.31,474.47"/>
    </edge>
    <edge id=":2123754185_0" function="internal">
        <lane id=":2123754185_0_0" index="0" disallow="tram rail_urban rail rail_electric ship" speed="13.89" length="5.89" shape="450.27,487.42 448.70,487.20 447.25,487.29 445.90,487.72 444.66,488.46"/>
    </edge>
    <edge id=":2123754185_1" function="internal">
        <lane id=":2123754185_1_0" index="0" disallow="tram rail_urban rail rail_electric ship" speed="13.89" length="4.75" shape="448.93,480.37 449.05,481.86 449.44,483.00 450.10,483.78 451.03,484.21"/>
    </edge>
    <edge id=":2123754185_2" function="internal">
        <lane id=":2123754185_2_0" index="0" disallow="tram rail_urban rail rail_electric ship" speed="13.89" length="9.48" shape="448.93,480.37 448.65,482.69 447.85,484.82 446.52,486.74 444.66,488.46"/>
    </edge>
    <edge id=":2123754194_0" function="internal">
        <lane id=":2123754194_0_0" index="0" disallow="tram rail_urban rail rail_electric ship" speed="13.89" length="4.70" shape="437.93,492.30 436.66,492.93 435.74,493.69 435.18,494.58 434.98,495.60"/>
    </edge>
    <edge id=":2123754194_1" function="internal">
        <lane id=":2123754194_1_0" index="0" disallow="tram rail_urban rail rail_electric ship" speed="13.89" length="8.98" shape="437.93,492.30 428.96,491.99"/>
    </edge>
    <edge id=":2123754194_2" function="internal">
        <lane id=":2123754194_2_0" index="0" disallow="tram rail_urban rail rail_electric ship" speed="13.89" length="4.92" shape="431.68,495.52 431.54,494.17 431.04,493.14 430.18,492.41 428.96,491.99"/>
    </edge>
    <edge id=":252791935_0" function="internal">
        <lane id=":252791935_0_0" index="0" disallow="tram rail_urban rail rail_electric ship" speed="27.78" length="4.82" shape="1634.26,573.35 1635.38,574.33 1635.67,575.20 1635.15,575.97 1633.82,576.62"/>
    </edge>
    <edge id=":258978880_0" function="internal">
        <lane id=":258978880_0_0" index="0" disallow="tram rail_urban rail rail_electric ship" speed="13.89" length="6.18" shape="1301.79,672.11 1307.77,673.65"/>
    </edge>
    <edge id=":258978880_1" function="internal">
        <lane id=":258978880_1_0" index="0" disallow="tram rail_urban rail rail_electric ship" speed="13.89" length="5.02" shape="1301.79,672.11 1303.06,672.65 1303.84,673.46 1304.14,674.55 1303.95,675.92"/>
    </edge>
    <edge id=":258979039_0" function="internal">
        <lane id=":258979039_0_0" index="0" disallow="tram rail_urban rail rail_electric ship" speed="13.89" length="6.34" shape="1173.87,641.46 1175.15,635.25"/>
    </edge>
    <edge id=":258979039_1" function="internal">